%nproc=1
%NoSave
%Mem=1900MB
#P OB98/GEN NMR

erre ene a

0 1
  C      270.712     383.415     339.921
  O      269.318     383.315     339.707
  H      270.973     382.841     340.814
  H      270.986     384.461     340.088
  H      271.273     383.017     339.074
  P      268.708     383.817     338.313
  C      267.986     386.211     338.942
  O      268.942     385.406     338.260
  C      268.037     387.659     338.438
  O      269.290     388.259     338.879
  C      267.978     387.792     336.907
  O      267.324     389.034     336.613
  C      269.443     387.865     336.542
  O      269.630     388.384     335.242
  C      269.985     388.713     337.693
  N      271.434     388.613     337.837
  C      272.193     389.611     337.235
  O      271.697     390.537     336.586
  N      273.549     389.507     337.372
  C      274.212     388.479     337.981
  O      275.434     388.417     338.042
  C      273.360     387.421     338.557
  C      272.033     387.535     338.461
  O      267.315     383.384     338.017
  O      269.745     383.283     337.211
  H      270.584     388.395     335.020
  H      269.280     383.104     336.373
  H      274.109     390.230     336.949
  H      273.856     386.590     339.037
  H      271.384     386.773     338.884
  H      269.735     389.774     337.547
  H      269.899     386.866     336.565
  H      267.457     386.961     336.424
  H      267.229     388.229     338.919
  H      268.215     386.180     340.012
  H      266.979     385.802     338.783
  P      265.761     389.127     336.277
  C      265.550     388.416     333.804
  O      265.405     388.016     335.163
  O      265.283     390.493     335.935
  O      265.030     388.576     337.590
  H      264.148     388.982     337.665
  H      265.287     387.601     333.162
  H      266.565     388.700     333.622
  H      264.906     389.248     333.606

 6  7  8  9  10  11  12  13  14  15  16  26  31  32  33  34  35 0
 6-311+G(2d,p)
 ****
 36  37 0
 6-311+G(2d,p)
 ****
 1  2  3  4  5  17  18  19  20  21  22  23  24  25 0
 3-21G
 ****
 27  28  29  30  38  39  40  41  42  43  44  45 0
 3-21G
 ****


