%nproc=1
%NoSave
%Mem=1900MB
#P OB98/GEN NMR

erre ene a

0 1
  C     -362.181     748.798    -332.453
  O     -363.426     748.419    -333.023
  P     -364.428     747.563    -332.107
  C     -364.998     745.047    -331.972
  O     -364.023     746.019    -332.320
  C     -364.374     743.660    -331.901
  O     -363.994     743.247    -333.252
  C     -363.114     743.569    -331.022
  O     -363.167     742.375    -330.220
  C     -361.981     743.396    -332.040
  O     -360.852     742.742    -331.465
  C     -362.702     742.598    -333.130
  N     -358.887     740.520    -335.702
  C     -359.449     740.133    -334.495
  N     -358.882     739.085    -333.862
  N     -360.482     740.738    -333.957
  C     -360.970     741.754    -334.715
  C     -360.502     742.211    -335.917
  C     -359.334     741.582    -336.482
  O     -358.723     741.925    -337.494
  N     -361.281     743.251    -336.396
  C     -362.207     743.416    -335.466
  N     -362.035     742.563    -334.409
  O     -365.822     747.698    -332.899
  O     -364.553     748.022    -330.701
  H     -360.416     742.264    -332.194
  H     -366.504     748.058    -332.296
  H     -358.070     740.033    -336.065
  H     -363.005     744.162    -335.505
  H     -362.871     741.567    -332.801
  H     -361.676     744.387    -332.398
  H     -358.102     738.559    -334.234
  H     -362.955     744.446    -330.371
  H     -359.292     738.778    -332.998
  H     -365.132     742.944    -331.561
  H     -365.799     745.050    -332.729
  H     -365.440     745.308    -331.001
  P     -362.616     742.514    -328.733
  C     -360.526     743.650    -327.653
  O     -361.275     743.396    -328.818
  O     -362.069     741.037    -328.400
  O     -363.643     742.968    -327.730
  H     -362.071     740.872    -327.434
  H     -360.863     743.047    -326.807
  H     -360.612     744.703    -327.401
  H     -359.473     743.416    -327.843
  H     -361.617     749.360    -333.168
  H     -361.634     747.921    -332.177
  H     -362.354     749.399    -331.585

 3  4  5  6  7  8  9  10  11  12  23  26  30  31  33  0
 6-311+G(2d,p)
 ****
 35  36  37  38 0
 6-311+G(2d,p)
 ****
 1  2  13  14  15  16  17  18  19  20  21  22  24  25  27  28  29 0
 3-21G
 ****
 32  34  39  40  41  42  43  44  45  46  47  48  49 0
 3-21G
 ****


