%nproc=1
%NoSave
%Mem=1900MB
#P OB98/GEN NMR

erre ene a

0 1
  C        3.018     348.259    -297.398
  O        1.973     347.821    -296.560
  H        3.814     348.673    -296.772
  H        2.665     349.048    -298.068
  H        3.424     347.428    -297.977
  P        0.643     347.203    -297.216
  C       -0.016     345.740    -295.212
  O       -0.338     346.895    -295.976
  C       -0.928     345.618    -293.992
  O       -0.367     346.374    -292.885
  C       -2.353     346.138    -294.230
  O       -3.305     345.192    -293.734
  C       -2.417     347.408    -293.394
  O       -3.743     347.763    -293.015
  C       -1.470     347.042    -292.246
  N       -1.046     348.214    -291.488
  C       -1.332     348.197    -290.118
  O       -1.899     347.226    -289.615
  N       -1.016     349.298    -289.364
  C       -0.505     350.344    -289.936
  N       -0.243     351.409    -289.135
  C       -0.215     350.416    -291.383
  C       -0.505     349.326    -292.092
  O        0.880     346.053    -298.136
  O       -0.074     348.441    -297.932
  H       -3.693     348.471    -292.338
  H       -0.678     348.100    -298.633
  H        0.205     351.312    -291.810
  H       -0.329     349.281    -293.161
  H       -1.944     346.333    -291.556
  H       -1.995     348.241    -293.972
  H       -2.568     346.340    -295.280
  H       -0.939     344.568    -293.670
  H       -0.462     351.319    -288.149
  H        1.034     345.806    -294.902
  H        0.132     352.286    -289.469
  H       -0.147     344.858    -295.848
  P       -4.563     344.889    -294.681
  C       -4.204     342.322    -294.807
  O       -5.050     343.386    -294.396
  O       -3.919     344.815    -296.143
  O       -5.632     345.933    -294.604
  H       -4.196     345.592    -296.667
  H       -4.658     341.387    -294.552
  H       -3.259     342.406    -294.313
  H       -4.058     342.371    -295.866

 6  7  8  9  10  11  12  13  14  15  16  26  30  31  32  33  35 0
 6-311+G(2d,p)
 ****
 37  38 0
 6-311+G(2d,p)
 ****
 1  2  3  4  5  17  18  19  20  21  22  23  24  25 0
 3-21G
 ****
 27  28  29  34  36  39  40  41  42  43  44  45  46 0
 3-21G
 ****


