%nproc=1
%NoSave
%Mem=1900MB
#P OB98/GEN NMR

erre ene a

0 1
  C     -249.094     778.611     729.183
  O     -248.911     779.569     728.164
  H     -250.008     778.857     729.728
  H     -248.248     778.641     729.881
  H     -249.189     777.607     728.765
  P     -247.729     779.355     727.100
  C     -247.422     779.716     724.562
  O     -248.336     779.700     725.658
  C     -248.082     779.127     723.322
  O     -248.364     777.714     723.529
  C     -249.425     779.755     722.980
  O     -249.249     781.041     722.374
  C     -250.006     778.690     722.056
  O     -249.501     778.814     720.721
  C     -249.511     777.392     722.726
  N     -250.564     776.749     723.515
  C     -251.770     776.538     722.883
  O     -251.995     776.858     721.710
  N     -252.768     775.998     723.651
  C     -252.710     775.792     724.996
  O     -253.680     775.545     725.690
  C     -251.382     775.964     725.611
  C     -250.383     776.445     724.856
  O     -246.997     778.054     727.195
  O     -246.748     780.595     727.372
  H     -245.980     780.288     727.898
  H     -249.788     779.693     720.415
  H     -253.667     775.889     723.214
  H     -251.268     775.739     726.684
  H     -249.393     776.613     725.298
  H     -249.155     776.680     721.959
  H     -251.102     778.780     722.017
  H     -250.040     779.846     723.872
  H     -247.362     779.204     722.477
  H     -246.538     779.117     724.835
  H     -247.095     780.750     724.383
  P     -250.526     781.925     721.991
  C     -251.231     784.409     722.078
  O     -250.187     783.468     722.327
  O     -251.828     781.431     722.565
  O     -250.565     781.917     720.399
  H     -251.450     781.672     720.098
  H     -250.895     785.391     722.336
  H     -252.086     784.158     722.670
  H     -251.495     784.383     721.041

 6  7  8  9  10  11  12  13  14  15  16  27  31  32  33  34  35 0
 6-311+G(2d,p)
 ****
 36  37 0
 6-311+G(2d,p)
 ****
 1  2  3  4  5  17  18  19  20  21  22  23  24  25 0
 3-21G
 ****
 26  28  29  30  38  39  40  41  42  43  44  45 0
 3-21G
 ****


