%nproc=1
%NoSave
%Mem=1900MB
#P OB98/GEN NMR

erre ene a

0 1
  C      625.831     619.738     298.988
  O      624.588     620.145     299.522
  H      626.457     620.623     298.847
  H      625.692     619.251     298.019
  H      626.340     619.057     299.680
  P      623.453     619.036     299.764
  C      622.825     617.400     301.655
  O      623.708     618.429     301.227
  C      623.158     616.974     303.091
  O      624.457     616.331     303.068
  C      623.227     618.167     304.056
  O      622.413     618.002     305.212
  C      624.729     618.356     304.272
  O      625.077     618.963     305.499
  C      625.286     616.946     304.076
  N      626.693     616.911     303.678
  C      627.644     617.062     304.682
  O      627.399     617.190     305.880
  N      628.950     617.038     304.259
  C      629.383     616.905     302.973
  O      630.568     616.895     302.665
  C      628.329     616.776     301.961
  C      627.052     616.787     302.349
  O      623.302     618.017     298.681
  O      622.113     619.890     299.955
  H      624.508     619.752     305.616
  H      621.583     619.860     299.137
  H      629.655     617.135     304.979
  H      628.635     616.677     300.926
  H      626.244     616.691     301.623
  H      625.188     616.361     304.990
  H      625.106     619.002     303.474
  H      622.818     619.075     303.586
  H      622.427     616.228     303.419
  H      622.939     616.551     300.970
  H      621.788     617.756     301.608
  P      621.022     618.754     305.454
  C      618.494     618.208     305.044
  O      619.834     617.761     305.043
  O      620.944     620.145     304.935
  O      620.915     618.829     307.063
  H      620.442     619.653     307.275
  H      617.851     617.407     304.744
  H      618.390     619.025     304.361
  H      618.226     618.530     306.029

 6  7  8  9  10  11  12  13  14  15  16  26  31  32  33  34  35 0
 6-311+G(2d,p)
 ****
 36  37 0
 6-311+G(2d,p)
 ****
 1  2  3  4  5  17  18  19  20  21  22  23  24  25 0
 3-21G
 ****
 27  28  29  30  38  39  40  41  42  43  44  45 0
 3-21G
 ****


