%nproc=1
%NoSave
%Mem=1900MB
#P OB98/GEN NMR

erre ene a

0 1
  C     -962.471     784.923    -297.474
  O     -962.930     784.011    -298.454
  H     -961.594     785.441    -297.868
  H     -962.186     784.395    -296.560
  H     -963.240     785.667    -297.248
  P     -964.211     783.115    -298.126
  C     -963.749     781.881    -300.362
  O     -963.974     781.763    -298.958
  C     -963.285     780.548    -300.943
  O     -961.977     780.187    -300.455
  C     -964.173     779.353    -300.581
  O     -965.422     779.336    -301.295
  C     -963.261     778.212    -301.003
  O     -963.262     778.102    -302.445
  C     -961.898     778.724    -300.476
  N     -961.574     778.205    -299.149
  C     -960.659     777.148    -299.102
  O     -960.168     776.688    -300.125
  N     -960.329     776.610    -297.861
  C     -960.901     777.069    -296.787
  N     -960.554     776.496    -295.610
  C     -961.895     778.167    -296.797
  C     -962.174     778.680    -297.997
  O     -965.544     783.770    -298.330
  O     -963.973     782.600    -296.625
  H     -962.895     777.216    -302.652
  H     -964.749     782.043    -296.358
  H     -962.356     778.507    -295.878
  H     -962.900     779.494    -298.095
  H     -961.083     778.459    -301.178
  H     -963.563     777.253    -300.601
  H     -964.340     779.296    -299.500
  H     -963.205     780.677    -302.036
  H     -959.884     775.751    -295.621
  H     -962.992     782.658    -300.515
  H     -961.018     776.726    -294.734
  H     -964.666     782.189    -300.874
  P     -966.669     778.668    -300.521
  C     -967.259     777.510    -302.788
  O     -967.080     777.387    -301.390
  O     -967.844     779.715    -300.788
  O     -966.439     778.396    -299.054
  H     -967.956     780.303    -299.998
  H     -967.529     776.559    -303.198
  H     -966.347     777.845    -303.236
  H     -968.036     778.218    -302.987

 6  7  8  9  10  11  12  13  14  15  16  26  30  31  32  33  35 0
 6-311+G(2d,p)
 ****
 37  38 0
 6-311+G(2d,p)
 ****
 1  2  3  4  5  17  18  19  20  21  22  23  24  25 0
 3-21G
 ****
 27  28  29  34  36  39  40  41  42  43  44  45  46 0
 3-21G
 ****


