%nproc=1
%NoSave
%Mem=1900MB
#P OB98/GEN NMR

erre ene a

0 1
  C     -151.690     -85.331     -95.421
  O     -152.401     -84.749     -94.341
  P     -151.766     -84.876     -92.873
  C     -154.020     -83.925     -91.903
  O     -153.009     -84.921     -91.863
  C     -155.309     -84.457     -91.273
  O     -155.908     -85.445     -92.139
  C     -155.119     -85.154     -89.933
  O     -154.934     -84.226     -88.876
  C     -156.402     -85.973     -89.842
  O     -157.492     -85.146     -89.399
  C     -156.614     -86.392     -91.310
  N     -156.183     -87.761     -91.587
  C     -156.845     -88.767     -90.888
  O     -157.745     -88.545     -90.080
  N     -156.420     -90.045     -91.139
  C     -155.382     -90.403     -91.949
  O     -155.016     -91.560     -92.104
  C     -154.701     -89.294     -92.635
  C     -155.125     -88.046     -92.426
  O     -151.146     -83.413     -92.693
  O     -150.791     -85.997     -92.751
  H     -151.626     -82.750     -93.220
  H     -158.309     -85.655     -89.566
  H     -156.900     -90.793     -90.662
  H     -153.866     -89.538     -93.280
  H     -154.628     -87.217     -92.915
  H     -157.673     -86.304     -91.580
  H     -156.319     -86.809     -89.139
  H     -154.257     -85.830     -89.983
  H     -156.013     -83.620     -91.175
  H     -154.207     -83.649     -92.943
  H     -153.667     -83.040     -91.364
  P     -153.867     -84.632     -87.742
  C     -155.289     -83.134     -86.141
  O     -154.573     -84.333     -86.336
  O     -152.786     -83.463     -87.900
  O     -153.316     -86.011     -87.904
  H     -153.190     -82.589     -88.028
  H     -155.971     -83.265     -85.298
  H     -155.871     -82.867     -87.027
  H     -154.591     -82.325     -85.907
  H     -152.229     -85.169     -96.331
  H     -151.583     -86.382     -95.252
  H     -150.722     -84.881     -95.495

 3  4  5  6  7  8  9  10  11  12  13  24  28  29  30  31  32 0
 6-311+G(2d,p)
 ****
 33  34 0
 6-311+G(2d,p)
 ****
 1  2  14  15  16  17  18  19  20  21  22  23  25  26  27 0
 3-21G
 ****
 35  36  37  38  39  40  41  42  43  44  45 0
 3-21G
 ****


