%nproc=1
%NoSave
%Mem=1900MB
#P OB98/GEN NMR

erre ene a

0 1
  C       39.627     436.923    -809.501
  O       38.390     436.911    -810.189
  H       39.526     436.316    -808.594
  H       39.880     437.946    -809.215
  H       40.415     436.500    -810.125
  P       38.346     437.669    -811.604
  C       37.529     435.600    -812.949
  O       37.227     436.914    -812.489
  C       36.250     434.893    -813.410
  O       35.510     434.439    -812.236
  C       35.304     435.770    -814.241
  O       34.680     434.933    -815.228
  C       34.246     436.179    -813.230
  O       33.018     436.577    -813.845
  C       34.157     434.897    -812.398
  N       29.839     436.316    -810.235
  C       30.152     436.136    -811.574
  N       29.176     436.372    -812.469
  N       31.334     435.763    -811.989
  C       32.209     435.523    -810.981
  C       32.016     435.665    -809.619
  C       30.714     436.107    -809.173
  O       30.367     436.298    -808.006
  N       33.157     435.354    -808.929
  C       34.038     435.026    -809.859
  N       33.504     435.113    -811.119
  O       39.725     437.226    -812.282
  O       38.206     439.156    -811.533
  H       32.460     436.991    -813.153
  H       40.420     437.893    -812.102
  H       28.910     436.617    -809.972
  H       35.064     434.727    -809.673
  H       33.587     434.114    -812.911
  H       34.605     437.017    -812.613
  H       28.230     436.627    -812.220
  H       35.783     436.619    -814.733
  H       29.377     436.219    -813.447
  H       36.538     433.987    -813.970
  H       37.979     435.035    -812.126
  H       38.246     435.663    -813.774
  P       34.037     435.641    -816.514
  C       35.793     434.741    -818.213
  O       34.429     434.775    -817.809
  O       34.945     436.953    -816.680
  O       32.590     435.982    -816.381
  H       34.426     437.661    -817.115
  H       35.892     434.127    -819.084
  H       36.389     434.336    -817.422
  H       36.124     435.734    -818.437

 6  7  8  9  10  11  12  13  14  15  26  29  33  34 0
 6-311+G(2d,p)
 ****
 36  38  39  40  41 0
 6-311+G(2d,p)
 ****
 1  2  3  4  5  16  17  18  19  20  21  22  23  24  25 0
 3-21G
 ****
 27  28  30  31  32  35  37  42  43  44  45  46  47 0
 3-21G
 ****
 48  49 0
 3-21G
 ****


