%nproc=1
%NoSave
%Mem=1900MB
#P OB98/GEN NMR

erre ene a

0 1
  C     -311.319    -801.270     760.262
  O     -311.018    -802.378     761.060
  P     -310.596    -802.271     762.592
  C     -308.453    -800.829     762.274
  O     -308.983    -802.078     762.684
  C     -306.923    -800.713     762.474
  O     -306.602    -800.976     763.868
  C     -306.221    -801.818     761.663
  O     -305.955    -801.626     760.290
  C     -305.028    -802.211     762.501
  O     -303.810    -801.577     762.081
  C     -305.412    -801.750     763.912
  N     -303.575    -806.099     765.805
  C     -302.933    -805.138     765.074
  N     -301.679    -805.471     764.652
  N     -303.438    -803.954     764.787
  C     -304.745    -803.818     765.190
  C     -305.478    -804.710     765.965
  C     -304.889    -805.984     766.306
  O     -305.455    -806.900     766.887
  N     -306.781    -804.273     766.133
  C     -306.811    -803.141     765.477
  N     -305.622    -802.841     764.860
  O     -311.252    -803.223     763.551
  O     -311.119    -800.781     762.960
  H     -303.617    -801.880     761.177
  H     -311.427    -800.787     763.894
  H     -303.158    -807.013     765.929
  H     -307.688    -802.522     765.364
  H     -304.621    -801.118     764.330
  H     -304.833    -803.310     762.428
  H     -301.319    -806.393     764.725
  H     -306.893    -802.688     761.668
  H     -301.262    -804.856     763.956
  H     -306.567    -799.708     762.261
  H     -308.968    -800.051     762.850
  H     -308.694    -800.638     761.216
  P     -306.581    -802.438     759.058
  C     -304.831    -804.299     759.271
  O     -305.420    -803.345     758.414
  O     -306.813    -801.342     757.938
  O     -307.849    -803.168     759.382
  H     -307.518    -801.672     757.307
  H     -303.887    -804.645     758.855
  H     -305.492    -805.170     759.374
  H     -304.662    -803.867     760.260
  H     -311.572    -801.599     759.276
  H     -310.468    -800.623     760.214
  H     -312.147    -800.740     760.685

 3  4  5  6  7  8  9  10  11  12  23  26  30  31 0
 6-311+G(2d,p)
 ****
 33  35  36  37  38 0
 6-311+G(2d,p)
 ****
 1  2  13  14  15  16  17  18  19  20  21  22  24  25 0
 3-21G
 ****
 27  28  29  32  34  39  40  41  42  43  44  45  46  47  48  49 0
 3-21G
 ****


