%nproc=1
%NoSave
%Mem=1900MB
#P OB98/GEN NMR

erre ene a

0 1
  C       14.489    -243.130     -39.205
  O       13.121    -242.851     -39.003
  H       14.785    -242.719     -40.175
  H       14.667    -244.207     -39.217
  H       15.094    -242.658     -38.426
  P       12.372    -243.506     -37.740
  C       12.266    -241.374     -36.317
  O       11.517    -242.299     -37.097
  C       11.458    -240.110     -36.018
  O       11.511    -239.216     -37.161
  C        9.979    -240.377     -35.710
  O        9.594    -239.635     -34.550
  C        9.253    -239.852     -36.941
  O        7.903    -239.499     -36.658
  C       10.180    -238.705     -37.360
  N        9.966    -238.274     -38.737
  C        8.725    -237.695     -39.025
  O        7.867    -237.602     -38.146
  N        8.472    -237.271     -40.303
  C        9.359    -237.457     -41.230
  N        9.044    -237.023     -42.481
  C       10.662    -238.106     -40.983
  C       10.899    -238.480     -39.726
  O       13.267    -244.219     -36.785
  O       11.245    -244.441     -38.384
  H        7.451    -239.299     -37.508
  H       10.954    -245.111     -37.717
  H       11.364    -238.250     -41.791
  H       11.835    -238.957     -39.449
  H       10.046    -237.836     -36.701
  H        9.247    -240.626     -37.718
  H        9.758    -241.428     -35.536
  H       11.945    -239.578     -35.194
  H        8.141    -236.582     -42.607
  H       13.183    -241.122     -36.859
  H        9.652    -237.122     -43.280
  H       12.529    -241.860     -35.370
  P        9.225    -240.500     -33.248
  C       11.091    -242.086     -32.404
  O       10.582    -240.761     -32.429
  O        8.862    -241.934     -33.857
  O        8.097    -239.932     -32.452
  H        7.894    -242.043     -33.905
  H       11.991    -242.111     -31.827
  H       11.299    -242.407     -33.403
  H       10.366    -242.738     -31.963

 6  7  8  9  10  11  12  13  14  15  16  26  30  31  32  33  35 0
 6-311+G(2d,p)
 ****
 37  38 0
 6-311+G(2d,p)
 ****
 1  2  3  4  5  17  18  19  20  21  22  23  24  25 0
 3-21G
 ****
 27  28  29  34  36  39  40  41  42  43  44  45  46 0
 3-21G
 ****


