%nproc=1
%NoSave
%Mem=1900MB
#P OB98/GEN NMR

erre ene a

0 1
  C     -466.179     -34.350    -104.235
  O     -466.892     -34.985    -103.192
  H     -465.724     -33.431    -103.861
  H     -465.384     -35.022    -104.577
  H     -466.839     -34.126    -105.074
  P     -468.279     -34.316    -102.741
  C     -469.266     -36.205    -101.255
  O     -468.631     -34.933    -101.293
  C     -468.742     -37.027    -100.076
  O     -467.321     -37.273    -100.278
  C     -468.912     -36.345     -98.706
  O     -469.255     -37.346     -97.740
  C     -467.513     -35.826     -98.395
  O     -467.275     -35.679     -97.000
  C     -466.652     -36.899     -99.061
  N     -461.767     -37.281     -97.666
  C     -462.836     -38.070     -97.441
  N     -464.099     -37.926     -97.897
  C     -464.185     -36.860     -98.711
  C     -463.188     -35.956     -99.047
  C     -461.921     -36.194     -98.465
  N     -460.849     -35.347     -98.635
  N     -463.684     -34.968     -99.871
  C     -464.963     -35.252    -100.010
  N     -465.315     -36.387     -99.328
  O     -469.334     -35.024    -103.716
  O     -468.341     -32.827    -102.836
  H     -467.683     -34.847     -96.696
  H     -469.399     -34.519    -104.549
  H     -462.653     -38.936     -96.799
  H     -465.682     -34.658    -100.564
  H     -466.541     -37.797     -98.436
  H     -467.372     -34.851     -98.879
  H     -469.663     -35.545     -98.694
  H     -469.242     -38.004    -100.082
  H     -469.049     -36.744    -102.186
  H     -460.020     -35.533     -98.098
  H     -460.979     -34.482     -99.135
  H     -470.351     -36.064    -101.167
  P     -470.816     -37.666     -97.539
  C     -470.516     -40.238     -97.242
  O     -470.952     -39.008     -96.673
  O     -471.289     -38.120     -99.003
  O     -471.614     -36.509     -97.033
  H     -472.215     -37.857     -99.153
  H     -470.674     -41.031     -96.541
  H     -469.474     -40.173     -97.478
  H     -471.072     -40.435     -98.135

 6  7  8  9  10  11  12  13  14  15  25  28  32  33  34  35 0
 6-311+G(2d,p)
 ****
 36  39  40 0
 6-311+G(2d,p)
 ****
 1  2  3  4  5  16  17  18  19  20  21  22  23  24 0
 3-21G
 ****
 26  27  29  30  31  37  38  41  42  43  44  45  46  47 0
 3-21G
 ****
 48 0
 3-21G
 ****


