%nproc=1
%NoSave
%Mem=1900MB
#P OB98/GEN NMR

erre ene a

0 1
  C       85.931     -22.595     -63.085
  O       86.232     -22.493     -61.708
  H       85.194     -21.838     -63.367
  H       86.845     -22.427     -63.660
  H       85.546     -23.593     -63.315
  P       85.010     -22.673     -60.685
  C       84.410     -20.142     -60.619
  O       84.015     -21.453     -61.000
  C       83.588     -19.122     -61.399
  O       83.623     -19.432     -62.811
  C       82.113     -19.099     -61.016
  O       81.864     -18.328     -59.854
  C       81.511     -18.447     -62.249
  O       81.757     -17.031     -62.220
  C       82.322     -19.107     -63.375
  N       80.102     -21.273     -67.447
  C       80.658     -20.056     -67.264
  N       81.248     -19.564     -66.156
  C       81.241     -20.473     -65.169
  C       80.717     -21.755     -65.210
  C       80.119     -22.152     -66.418
  N       79.523     -23.379     -66.599
  N       80.879     -22.385     -63.992
  C       81.505     -21.503     -63.238
  N       81.716     -20.321     -63.895
  O       85.635     -22.269     -59.268
  O       84.358     -24.015     -60.676
  H       81.511     -16.680     -63.097
  H       85.047     -22.555     -58.543
  H       80.621     -19.389     -68.120
  H       81.814     -21.668     -62.214
  H       82.486     -18.436     -64.226
  H       80.429     -18.585     -62.314
  H       81.708     -20.112     -60.915
  H       84.046     -18.135     -61.264
  H       85.473     -20.009     -60.846
  H       78.993     -23.513     -67.446
  H       79.400     -23.981     -65.798
  H       84.251     -20.012     -59.545
  P       80.672     -18.805     -58.889
  C       79.130     -17.271     -60.309
  O       79.307     -18.540     -59.691
  O       80.658     -17.678     -57.754
  O       80.840     -20.177     -58.325
  H       80.381     -18.052     -56.897
  H       78.181     -17.243     -60.802
  H       79.908     -17.112     -61.026
  H       79.168     -16.503     -59.565

 6  7  8  9  10  11  12  13  14  15  25  28  32  33  34  35 0
 6-311+G(2d,p)
 ****
 36  39  40 0
 6-311+G(2d,p)
 ****
 1  2  3  4  5  16  17  18  19  20  21  22  23  24 0
 3-21G
 ****
 26  27  29  30  31  37  38  41  42  43  44  45  46  47 0
 3-21G
 ****
 48 0
 3-21G
 ****


