%nproc=1
%NoSave
%Mem=1900MB
#P OB98/GEN NMR

erre ene a

0 1
  C      192.541    1037.595     164.958
  O      192.919    1036.704     163.930
  P      193.202    1035.168     164.269
  C      190.710    1034.555     163.975
  O      192.055    1034.289     163.558
  C      189.721    1034.118     162.908
  O      189.801    1034.995     161.765
  C      189.969    1032.721     162.366
  O      189.510    1031.732     163.278
  C      189.197    1032.765     161.050
  O      187.795    1032.535     161.275
  C      189.438    1034.215     160.592
  N      190.347    1034.142     155.566
  C      189.237    1033.855     156.300
  N      189.082    1033.851     157.639
  C      190.237    1034.198     158.240
  C      191.469    1034.475     157.636
  C      191.486    1034.467     156.228
  N      192.586    1034.829     155.478
  N      192.424    1034.729     158.598
  C      191.803    1034.598     159.754
  N      190.470    1034.323     159.584
  O      193.427    1034.856     165.720
  O      194.502    1034.819     163.402
  H      187.406    1032.256     160.411
  H      195.221    1034.537     163.995
  H      188.356    1033.592     155.715
  H      192.266    1034.682     160.738
  H      188.537    1034.668     160.183
  H      189.537    1032.021     160.331
  H      191.031    1032.577     162.148
  H      188.703    1034.197     163.319
  H      190.608    1035.629     164.176
  H      192.463    1034.924     154.492
  H      193.341    1035.352     155.941
  H      190.523    1034.009     164.918
  P      190.031    1030.220     163.134
  C      191.836    1030.464     164.936
  O      190.634    1029.822     164.566
  O      190.903    1029.946     161.970
  O      188.670    1029.361     163.081
  H      188.816    1028.566     162.532
  H      192.694    1029.995     164.428
  H      191.987    1030.339     166.029
  H      191.796    1031.533     164.709
  H      192.395    1038.572     164.547
  H      193.311    1037.631     165.700
  H      191.630    1037.257     165.406

 3  4  5  6  7  8  9  10  11  12  22  25  29  30  31  32 0
 6-311+G(2d,p)
 ****
 33  36  37 0
 6-311+G(2d,p)
 ****
 1  2  13  14  15  16  17  18  19  20  21  23  24  26 0
 3-21G
 ****
 27  28  34  35  38  39  40  41  42  43  44  45  46  47  48 0
 3-21G
 ****


