%nproc=1
%NoSave
%Mem=1900MB
#P OB98/GEN NMR

erre ene a

0 1
  C      686.236    -526.856     373.936
  O      686.629    -527.337     375.200
  P      687.654    -528.579     375.302
  C      686.251    -529.647     377.193
  O      686.846    -529.832     375.906
  C      684.987    -530.487     377.326
  O      683.971    -530.016     376.412
  C      685.192    -531.955     376.986
  O      685.894    -532.646     377.991
  C      683.740    -532.398     376.797
  O      683.116    -532.660     378.065
  C      683.110    -531.158     376.134
  N      682.912    -531.333     374.698
  C      681.669    -530.952     374.200
  O      680.776    -530.570     374.970
  N      681.450    -531.011     372.851
  C      682.369    -531.527     372.077
  N      682.134    -531.518     370.733
  C      683.632    -532.097     372.586
  C      683.855    -531.947     373.893
  O      688.953    -528.280     375.981
  O      687.889    -529.011     373.778
  H      688.852    -529.082     373.621
  H      683.300    -531.869     378.631
  H      684.321    -532.582     371.914
  H      684.759    -532.304     374.356
  H      682.146    -530.919     376.598
  H      683.656    -533.317     376.198
  H      685.718    -532.045     376.026
  H      684.617    -530.383     378.350
  H      681.255    -531.105     370.411
  H      686.008    -528.591     377.310
  H      682.875    -531.576     370.040
  H      686.988    -529.915     377.964
  P      686.413    -534.121     377.621
  C      687.479    -534.446     379.960
  O      686.563    -534.929     378.992
  O      687.931    -533.876     377.155
  O      685.615    -534.810     376.555
  H      688.149    -534.488     376.411
  H      687.213    -534.875     380.930
  H      687.428    -533.355     380.034
  H      688.494    -534.750     379.705
  H      685.559    -526.037     374.061
  H      685.751    -527.639     373.391
  H      687.099    -526.527     373.396

 3  4  5  6  7  8  9  10  11  12  13  24  27  28  29  30  32 0
 6-311+G(2d,p)
 ****
 34  35 0
 6-311+G(2d,p)
 ****
 1  2  14  15  16  17  18  19  20  21  22  23  25  26 0
 3-21G
 ****
 31  33  36  37  38  39  40  41  42  43  44  45  46 0
 3-21G
 ****


