%nproc=1
%NoSave
%Mem=1900MB
#P OB98/GEN NMR

erre ene a

0 1
  C       -7.606      11.108      -5.592
  O       -7.954      12.246      -6.350
  P       -9.025      12.160      -7.537
  C       -9.203      10.756      -9.690
  O       -8.328      11.337      -8.730
  C       -8.410      10.278     -10.911
  O       -7.517       9.198     -10.495
  C       -9.314       9.736     -12.037
  O       -9.077      10.322     -13.317
  C       -9.091       8.235     -11.953
  O       -9.421       7.538     -13.139
  C       -7.632       8.163     -11.491
  N       -7.274       6.846     -10.970
  C       -7.278       5.786     -11.871
  O       -7.550       5.888     -13.063
  N       -7.013       4.552     -11.344
  C       -6.864       4.261     -10.022
  O       -6.728       3.117      -9.610
  C       -6.909       5.416      -9.113
  C       -7.086       6.640      -9.618
  O       -9.620      13.461      -7.956
  O      -10.093      11.101      -6.985
  H       -9.482       6.589     -12.922
  H       -9.731      10.221      -6.785
  H       -7.013       3.775     -11.986
  H       -6.804       5.215      -8.057
  H       -7.123       7.510      -8.973
  H       -6.944       8.413     -12.299
  H       -9.743       7.844     -11.162
  H      -10.368       9.959     -11.836
  H       -7.801      11.115     -11.262
  H       -9.928      11.509     -10.006
  H       -9.762       9.932      -9.232
  P       -9.862       9.945     -14.660
  C       -9.970       7.896     -16.256
  O       -9.320       8.531     -15.175
  O       -9.904      11.020     -15.694
  O      -11.338       9.601     -14.144
  H      -11.984       9.804     -14.846
  H       -9.843       6.814     -16.154
  H       -9.504       8.214     -17.193
  H      -11.037       8.128     -16.278
  H       -6.879      11.379      -4.855
  H       -7.196      10.360      -6.239
  H       -8.478      10.721      -5.108

 3  4  5  6  7  8  9  10  11  12  13  23  28  29  30  31  32 0
 6-311+G(2d,p)
 ****
 33  34 0
 6-311+G(2d,p)
 ****
 1  2  14  15  16  17  18  19  20  21  22  24  25  26  27 0
 3-21G
 ****
 35  36  37  38  39  40  41  42  43  44  45 0
 3-21G
 ****


