%nproc=1
%NoSave
%Mem=1900MB
#P OB98/GEN NMR

erre ene a

0 1
  C      681.770    -769.748    -533.349
  O      682.360    -769.701    -532.050
  P      682.150    -770.969    -531.071
  C      683.379    -773.171    -530.515
  O      683.362    -771.993    -531.322
  C      684.538    -774.106    -530.920
  O      684.381    -774.448    -532.337
  C      685.936    -773.481    -530.782
  O      686.617    -773.645    -529.552
  C      686.733    -774.313    -531.815
  O      687.140    -775.552    -531.226
  C      685.706    -774.588    -532.909
  N      688.455    -773.451    -537.103
  C      688.587    -774.420    -536.186
  N      687.803    -774.665    -535.092
  C      686.805    -773.754    -535.009
  C      686.557    -772.723    -535.898
  C      687.429    -772.562    -536.969
  N      687.305    -771.574    -537.931
  N      685.439    -772.008    -535.482
  C      685.040    -772.606    -534.369
  N      685.840    -773.678    -534.058
  O      680.800    -771.580    -531.071
  O      682.518    -770.359    -529.643
  H      686.331    -775.944    -530.820
  H      681.913    -770.744    -528.973
  H      689.406    -775.117    -536.323
  H      684.198    -772.293    -533.781
  H      685.768    -775.605    -533.315
  H      687.640    -773.804    -532.150
  H      685.941    -772.435    -531.092
  H      684.479    -775.036    -530.334
  H      682.441    -773.702    -530.622
  H      688.009    -771.525    -538.641
  H      686.591    -770.875    -537.802
  H      683.452    -772.842    -529.473
  P      686.937    -772.358    -528.608
  C      685.180    -770.841    -527.387
  O      685.612    -772.129    -527.735
  O      687.430    -771.126    -529.332
  O      687.978    -772.951    -527.557
  H      687.585    -773.607    -526.939
  H      684.165    -770.891    -526.993
  H      685.176    -770.189    -528.292
  H      685.849    -770.403    -526.631
  H      681.994    -768.844    -533.876
  H      680.709    -769.852    -533.255
  H      682.164    -770.583    -533.890

 3  4  5  6  7  8  9  10  11  12  22  25  29  30  31  32 0
 6-311+G(2d,p)
 ****
 33  36  37 0
 6-311+G(2d,p)
 ****
 1  2  13  14  15  16  17  18  19  20  21  23  24  26 0
 3-21G
 ****
 27  28  34  35  38  39  40  41  42  43  44  45  46  47  48 0
 3-21G
 ****


