%nproc=1
%NoSave
%Mem=1900MB
#P OB98/GEN NMR

erre ene a

0 1
  C     -898.960     477.441     -91.841
  O     -898.440     476.480     -92.730
  H     -898.930     478.425     -92.321
  H     -898.370     477.494     -90.925
  H     -900.000     477.211     -91.588
  P     -898.240     474.977     -92.188
  C     -895.840     475.653     -91.525
  O     -896.660     474.723     -92.206
  C     -894.800     474.900     -90.690
  O     -895.440     474.220     -89.591
  C     -894.060     473.826     -91.467
  O     -893.090     474.395     -92.332
  C     -893.510     472.962     -90.344
  O     -892.330     473.537     -89.770
  C     -894.680     472.999     -89.348
  N     -895.540     471.812     -89.429
  C     -894.930     470.603     -89.105
  O     -893.750     470.556     -88.763
  N     -895.700     469.444     -89.207
  C     -896.940     469.509     -89.567
  N     -897.630     468.346     -89.637
  C     -897.620     470.780     -89.910
  C     -896.870     471.898     -89.813
  O     -899.070     473.910     -92.837
  O     -898.570     475.103     -90.616
  H     -892.530     474.492     -89.631
  H     -899.510     474.951     -90.451
  H     -898.650     470.797     -90.194
  H     -897.270     472.855     -90.047
  H     -894.300     473.079     -88.310
  H     -893.260     471.966     -90.685
  H     -894.770     473.215     -92.053
  H     -894.090     475.625     -90.268
  H     -897.140     467.488     -89.419
  H     -896.480     476.248     -90.877
  H     -898.620     468.289     -89.831
  H     -895.340     476.312     -92.238
  P     -892.810     473.788     -93.786
  C     -890.940     472.147     -93.115
  O     -891.270     473.344     -93.790
  O     -893.230     474.652     -94.930
  O     -893.580     472.378     -93.725
  H     -894.560     472.503     -93.782
  H     -889.888     471.971     -93.196
  H     -891.473     471.331     -93.555
  H     -891.209     472.234     -92.083

 6  7  8  9  10  11  12  13  14  15  16  26  30  31  32  33  35 0
 6-311+G(2d,p)
 ****
 37  38 0
 6-311+G(2d,p)
 ****
 1  2  3  4  5  17  18  19  20  21  22  23  24  25 0
 3-21G
 ****
 27  28  29  34  36  39  40  41  42  43  44  45  46 0
 3-21G
 ****


