%nproc=1
%NoSave
%Mem=1900MB
#P OB98/GEN NMR

erre ene a

0 1
  C     -418.498     515.897     875.939
  O     -417.303     516.551     875.572
  H     -418.447     515.664     877.008
  H     -418.603     514.957     875.377
  H     -419.368     516.531     875.755
  P     -417.177     517.156     874.087
  C     -415.538     518.758     872.898
  O     -416.053     518.292     874.147
  C     -415.074     520.205     873.027
  O     -416.222     521.086     873.123
  C     -414.253     520.482     874.278
  O     -412.920     519.982     874.136
  C     -414.363     521.999     874.352
  O     -413.429     522.637     873.481
  C     -415.811     522.234     873.880
  N     -416.719     522.488     875.009
  C     -417.644     523.503     874.842
  O     -417.732     524.183     873.811
  N     -418.438     523.778     875.921
  C     -418.297     523.244     877.169
  O     -418.852     523.676     878.161
  C     -417.355     522.117     877.271
  C     -416.603     521.807     876.204
  O     -418.462     517.559     873.438
  O     -416.452     515.986     873.265
  H     -417.117     515.504     872.730
  H     -412.547     522.503     873.887
  H     -419.079     524.547     875.828
  H     -417.255     521.608     878.244
  H     -415.870     520.996     876.271
  H     -415.853     523.095     873.192
  H     -414.164     522.345     875.379
  H     -414.727     520.036     875.149
  H     -414.515     520.471     872.100
  H     -416.334     518.685     872.140
  H     -414.705     518.104     872.593
  P     -411.871     520.172     875.325
  C     -409.450     519.412     875.814
  O     -410.640     519.154     875.080
  O     -412.455     520.118     876.714
  O     -411.196     521.593     875.057
  H     -411.226     522.131     875.865
  H     -408.713     518.676     875.569
  H     -409.661     519.370     876.862
  H     -409.080     520.384     875.564

 6  7  8  9  10  11  12  13  14  15  16  27  31  32  33  34  35 0
 6-311+G(2d,p)
 ****
 36  37 0
 6-311+G(2d,p)
 ****
 1  2  3  4  5  17  18  19  20  21  22  23  24  25 0
 3-21G
 ****
 26  28  29  30  38  39  40  41  42  43  44  45 0
 3-21G
 ****


