%nproc=1
%NoSave
%Mem=1900MB
#P OB98/GEN NMR

erre ene a

0 1
  C      423.070    -260.858    -133.422
  O      423.292    -260.084    -132.250
  P      423.970    -258.638    -132.436
  C      426.416    -259.372    -131.968
  O      425.481    -258.883    -132.920
  C      427.811    -258.794    -132.229
  O      428.286    -259.270    -133.517
  C      427.868    -257.258    -132.253
  O      429.134    -256.885    -131.704
  C      427.805    -256.961    -133.742
  O      428.222    -255.651    -134.089
  C      428.666    -258.103    -134.280
  N      430.366    -256.946    -138.968
  C      430.811    -256.604    -137.734
  N      430.318    -256.959    -136.528
  C      429.243    -257.761    -136.678
  C      428.663    -258.171    -137.871
  C      429.272    -257.734    -139.050
  N      428.805    -258.077    -140.307
  N      427.558    -258.966    -137.618
  C      427.474    -259.024    -136.302
  N      428.481    -258.331    -135.693
  O      424.146    -258.129    -130.928
  O      423.182    -257.672    -133.268
  H      427.561    -254.999    -133.778
  H      423.961    -257.174    -130.855
  H      431.691    -255.964    -137.714
  H      426.702    -259.542    -135.751
  H      429.739    -257.925    -134.105
  H      426.767    -257.070    -134.083
  H      427.068    -256.782    -131.675
  H      428.496    -259.186    -131.465
  H      426.479    -260.464    -132.048
  H      429.186    -257.553    -141.087
  H      427.883    -258.487    -140.360
  H      426.071    -259.131    -130.959
  P      429.195    -255.694    -130.622
  C      429.778    -253.928    -132.398
  O      428.812    -254.387    -131.477
  O      430.771    -255.515    -130.449
  O      428.447    -255.933    -129.352
  H      431.220    -255.430    -131.312
  H      429.350    -253.101    -132.971
  H      430.051    -254.737    -133.095
  H      430.665    -253.576    -131.868
  H      422.617    -261.789    -133.154
  H      424.004    -261.043    -133.909
  H      422.422    -260.324    -134.085

 3  4  5  6  7  8  9  10  11  12  22  25  29  30  31  32 0
 6-311+G(2d,p)
 ****
 33  36  37 0
 6-311+G(2d,p)
 ****
 1  2  13  14  15  16  17  18  19  20  21  23  24  26 0
 3-21G
 ****
 27  28  34  35  38  39  40  41  42  43  44  45  46  47  48 0
 3-21G
 ****


