%nproc=1
%NoSave
%Mem=1900MB
#P OB98/GEN NMR

erre ene a

0 1
  C     -124.462    -686.242     302.325
  O     -124.338    -684.816     302.237
  P     -123.957    -684.036     303.589
  C     -123.664    -681.675     302.568
  O     -124.408    -682.504     303.445
  C     -124.006    -680.190     302.754
  O     -125.342    -679.896     302.263
  C     -123.952    -679.731     304.223
  O     -123.499    -678.372     304.224
  C     -125.404    -679.761     304.649
  O     -125.628    -678.934     305.787
  C     -126.094    -679.289     303.348
  N     -127.510    -679.651     303.284
  C     -128.383    -678.924     304.101
  O     -127.946    -678.072     304.890
  N     -129.731    -679.200     304.046
  C     -130.156    -680.165     303.282
  N     -131.506    -680.401     303.276
  C     -129.260    -680.999     302.456
  C     -127.969    -680.689     302.503
  O     -122.354    -683.974     303.542
  O     -124.437    -684.733     304.826
  H     -126.580    -678.687     305.801
  H     -121.981    -684.277     304.393
  H     -129.662    -681.799     301.853
  H     -127.240    -681.235     301.926
  H     -126.018    -678.214     303.249
  H     -125.708    -680.788     304.892
  H     -123.287    -680.343     304.843
  H     -123.296    -679.597     302.158
  H     -132.081    -679.799     303.864
  H     -123.872    -681.958     301.532
  H     -131.936    -681.115     302.729
  H     -122.597    -681.854     302.719
  P     -121.920    -678.104     304.172
  C     -122.475    -675.980     302.832
  O     -121.782    -676.513     303.948
  O     -121.538    -678.669     302.723
  O     -121.065    -678.705     305.237
  H     -120.572    -678.619     302.598
  H     -122.396    -674.887     302.878
  H     -123.537    -676.267     302.878
  H     -122.026    -676.326     301.905
  H     -124.717    -686.638     301.364
  H     -125.229    -686.491     303.028
  H     -123.532    -686.662     302.648

 3  4  5  6  7  8  9  10  11  12  13  21  23  27  28  29  30  32 0
 6-311+G(2d,p)
 ****
 34  35 0
 6-311+G(2d,p)
 ****
 1  2  14  15  16  17  18  19  20  22  24  25  26 0
 3-21G
 ****
 31  33  36  37  38  39  40  41  42  43  44  45  46 0
 3-21G
 ****


