%nproc=1
%NoSave
%Mem=1900MB
#P OB98/GEN NMR

erre ene a

0 1
  C      888.317    -129.695     405.455
  O      887.672    -129.080     406.550
  H      889.373    -129.410     405.457
  H      887.863    -129.362     404.516
  H      888.250    -130.789     405.533
  P      886.174    -129.542     406.879
  C      885.078    -131.752     407.701
  O      886.279    -131.031     407.473
  C      885.401    -133.214     408.024
  O      885.893    -133.856     406.812
  C      886.472    -133.390     409.113
  O      886.129    -134.542     409.894
  C      887.727    -133.684     408.310
  O      888.724    -134.384     409.044
  C      887.144    -134.498     407.151
  N      888.036    -134.536     405.994
  C      888.990    -135.552     405.957
  O      889.079    -136.462     406.783
  N      889.877    -135.501     404.908
  C      889.912    -134.541     403.940
  O      890.745    -134.529     403.039
  C      888.888    -133.488     404.036
  C      888.018    -133.540     405.040
  O      885.538    -129.764     405.426
  O      885.376    -128.589     407.715
  H      885.133    -128.942     405.101
  H      888.317    -135.203     409.383
  H      890.573    -136.221     404.869
  H      888.893    -132.703     403.285
  H      887.258    -132.763     405.156
  H      886.914    -135.518     407.478
  H      888.169    -132.747     407.948
  H      886.590    -132.523     409.765
  H      884.468    -133.722     408.310
  H      884.454    -131.718     406.800
  H      884.527    -131.290     408.525
  P      885.913    -134.327     411.473
  C      883.767    -134.304     412.978
  O      884.379    -134.680     411.743
  O      885.988    -132.731     411.580
  O      886.915    -135.066     412.301
  H      885.597    -132.276     410.805
  H      882.745    -134.621     412.980
  H      883.811    -133.241     413.089
  H      884.286    -134.769     413.790

 6  7  8  9  10  11  12  13  14  15  16  27  31  32  33  34  35 0
 6-311+G(2d,p)
 ****
 36  37 0
 6-311+G(2d,p)
 ****
 1  2  3  4  5  17  18  19  20  21  22  23  24  25 0
 3-21G
 ****
 26  28  29  30  38  39  40  41  42  43  44  45 0
 3-21G
 ****


