%nproc=1
%NoSave
%Mem=1900MB
#P OB98/GEN NMR

erre ene a

0 1
  C     -223.972    -161.013      80.861
  O     -225.228    -161.537      80.493
  H     -223.876    -160.004      80.449
  H     -223.174    -161.632      80.445
  H     -223.872    -160.955      81.948
  P     -225.748    -162.883      81.192
  C     -225.837    -165.357      80.463
  O     -225.225    -164.090      80.271
  C     -226.298    -165.926      79.119
  O     -227.348    -165.057      78.592
  C     -225.175    -165.996      78.062
  O     -225.399    -167.146      77.235
  C     -225.428    -164.727      77.271
  O     -224.831    -164.774      75.999
  C     -226.953    -164.687      77.259
  N     -227.449    -163.368      76.876
  C     -227.779    -163.184      75.537
  O     -227.660    -164.058      74.679
  N     -228.182    -161.922      75.187
  C     -228.183    -160.831      76.002
  O     -228.481    -159.708      75.618
  C     -227.775    -161.073      77.398
  C     -227.439    -162.312      77.766
  O     -227.203    -162.933      81.518
  O     -224.826    -163.031      82.493
  H     -225.107    -163.999      75.474
  H     -225.257    -163.611      83.150
  H     -228.434    -161.774      74.222
  H     -227.750    -160.223      78.068
  H     -227.115    -162.526      78.779
  H     -227.360    -165.438      76.570
  H     -225.014    -163.864      77.803
  H     -224.177    -166.040      78.499
  H     -226.750    -166.912      79.280
  H     -226.699    -165.227      81.127
  H     -225.122    -166.040      80.936
  P     -224.486    -168.460      77.351
  C     -222.368    -169.465      76.295
  O     -223.120    -168.276      76.520
  O     -225.209    -169.734      77.049
  O     -223.992    -168.465      78.874
  H     -224.096    -169.363      79.242
  H     -221.486    -169.229      75.737
  H     -222.962    -170.164      75.744
  H     -222.091    -169.895      77.235

 6  7  8  9  10  11  12  13  14  15  16  26  31  32  33  34  35 0
 6-311+G(2d,p)
 ****
 36  37 0
 6-311+G(2d,p)
 ****
 1  2  3  4  5  17  18  19  20  21  22  23  24  25 0
 3-21G
 ****
 27  28  29  30  38  39  40  41  42  43  44  45 0
 3-21G
 ****


