%nproc=1
%NoSave
%Mem=1900MB
#P OB98/GEN NMR

erre ene a

0 1
  C      131.077     138.092     -94.832
  O      131.607     137.377     -95.936
  P      132.900     136.461     -95.681
  C      134.930     137.506     -96.988
  O      134.162     137.442     -95.799
  C      134.382     138.597     -97.912
  O      134.312     139.851     -97.204
  C      135.239     138.872     -99.141
  O      135.064     137.878    -100.139
  C      134.748     140.261     -99.537
  O      133.512     140.166    -100.262
  C      134.509     140.914     -98.161
  N      135.592     141.804     -97.748
  C      135.229     143.115     -97.444
  O      134.071     143.524     -97.512
  N      136.253     143.948     -97.079
  C      137.579     143.626     -97.049
  O      138.460     144.424     -96.755
  C      137.905     142.237     -97.410
  C      136.912     141.407     -97.737
  O      132.921     135.605     -97.031
  O      132.813     135.662     -94.424
  H      132.507     136.084     -97.771
  H      132.872     139.732     -99.663
  H      136.012     144.896     -96.832
  H      138.948     141.947     -97.406
  H      137.136     140.382     -98.017
  H      133.574     141.490     -98.172
  H      135.462     140.794    -100.172
  H      136.297     138.924     -98.855
  H      133.364     138.315     -98.208
  H      134.882     136.538     -97.495
  H      135.973     137.714     -96.726
  P      136.305     137.639    -101.138
  C      135.761     138.706    -103.461
  O      136.295     138.867    -102.166
  O      135.775     136.397    -101.998
  O      137.601     137.398    -100.437
  H      134.841     136.480    -102.245
  H      135.516     139.691    -103.865
  H      134.854     138.093    -103.446
  H      136.509     138.235    -104.108
  H      130.224     138.655     -95.148
  H      131.821     138.758     -94.448
  H      130.786     137.403     -94.067

 3  4  5  6  7  8  9  10  11  12  13  24  28  29  30  31  32 0
 6-311+G(2d,p)
 ****
 33  34 0
 6-311+G(2d,p)
 ****
 1  2  14  15  16  17  18  19  20  21  22  23  25  26  27 0
 3-21G
 ****
 35  36  37  38  39  40  41  42  43  44  45 0
 3-21G
 ****


