%nproc=1
%NoSave
%Mem=1900MB
#P OB98/GEN NMR

erre ene a

0 1
  C      677.457     366.317     114.764
  O      677.336     367.739     114.598
  P      677.368     368.294     113.089
  C      677.080     370.630     111.982
  O      677.349     369.896     113.170
  C      677.047     372.141     112.273
  O      675.974     372.466     113.173
  C      678.310     372.668     112.944
  O      679.352     372.876     112.003
  C      677.808     374.001     113.494
  O      677.837     374.999     112.456
  C      676.360     373.676     113.889
  N      676.249     375.801     118.487
  C      676.454     376.375     117.249
  N      676.622     377.717     117.237
  N      676.488     375.708     116.125
  C      676.267     374.369     116.298
  C      676.059     373.687     117.475
  C      676.061     374.439     118.705
  O      675.917     373.972     119.829
  N      675.870     372.349     117.240
  C      675.934     372.230     115.924
  N      676.186     373.431     115.311
  O      675.905     367.933     112.539
  O      678.451     367.698     112.248
  H      677.709     375.865     112.891
  H      675.934     367.827     111.570
  H      676.252     376.364     119.324
  H      675.802     371.307     115.375
  H      675.666     374.465     113.583
  H      678.435     374.376     114.318
  H      676.539     378.309     118.048
  H      678.623     372.014     113.766
  H      676.738     378.166     116.331
  H      676.875     372.662     111.323
  H      676.113     370.324     111.566
  H      677.837     370.397     111.229
  P      680.481     371.727     111.889
  C      681.726     371.241     109.673
  O      681.436     372.179     110.683
  O      679.671     370.478     111.310
  O      681.155     371.415     113.186
  H      680.088     369.646     111.609
  H      680.834     370.682     109.377
  H      682.500     370.541     110.023
  H      682.106     371.766     108.796
  H      677.422     366.075     115.806
  H      678.388     365.988     114.353
  H      676.651     365.829     114.257

 3  4  5  6  7  8  9  10  11  12  23  26  30  31  33  0
 6-311+G(2d,p)
 ****
 35  36  37  38 0
 6-311+G(2d,p)
 ****
 1  2  13  14  15  16  17  18  19  20  21  22  24  25  27  28  29 0
 3-21G
 ****
 32  34  39  40  41  42  43  44  45  46  47  48  49 0
 3-21G
 ****


