%nproc=1
%NoSave
%Mem=1900MB
#P OB98/GEN NMR

erre ene a

0 1
  C      187.146    -136.405     186.320
  O      186.243    -135.406     185.878
  P      185.047    -134.992     186.867
  C      183.421    -136.539     185.558
  O      183.967    -136.178     186.819
  C      181.947    -136.925     185.691
  O      181.858    -138.240     186.306
  C      181.110    -135.961     186.547
  O      179.801    -135.926     185.968
  C      181.096    -136.662     187.894
  O      180.088    -136.199     188.776
  C      180.977    -138.114     187.443
  N      179.295    -141.956     190.369
  C      178.706    -141.262     189.368
  N      179.221    -140.257     188.628
  C      180.484    -139.991     189.001
  C      181.205    -140.600     190.018
  C      180.561    -141.629     190.718
  N      181.161    -142.328     191.746
  N      182.463    -140.041     190.126
  C      182.497    -139.107     189.194
  N      181.332    -139.056     188.478
  O      184.321    -133.804     186.080
  O      185.479    -134.575     188.241
  H      179.205    -136.336     188.375
  H      184.030    -133.102     186.690
  H      177.686    -141.553     189.130
  H      183.327    -138.442     189.010
  H      179.961    -138.355     187.105
  H      182.059    -136.492     188.394
  H      181.514    -134.944     186.578
  H      181.519    -137.005     184.683
  H      183.968    -137.402     185.161
  H      180.552    -142.903     192.315
  H      182.015    -141.945     192.128
  H      183.549    -135.709     184.856
  P      179.228    -134.526     185.429
  C      177.767    -134.250     187.524
  O      178.841    -133.728     186.767
  O      177.789    -134.973     184.892
  O      180.077    -133.817     184.427
  H      177.299    -135.489     185.561
  H      177.674    -133.675     188.450
  H      177.958    -135.301     187.779
  H      176.833    -134.165     186.959
  H      187.885    -136.577     185.565
  H      186.610    -137.312     186.509
  H      187.625    -136.080     187.220

 3  4  5  6  7  8  9  10  11  12  22  25  29  30  31  32 0
 6-311+G(2d,p)
 ****
 33  36  37 0
 6-311+G(2d,p)
 ****
 1  2  13  14  15  16  17  18  19  20  21  23  24  26 0
 3-21G
 ****
 27  28  34  35  38  39  40  41  42  43  44  45  46  47  48 0
 3-21G
 ****


