%nproc=1
%NoSave
%Mem=1900MB
#P OB98/GEN NMR

erre ene a

0 1
  C      399.603      44.239    -316.961
  O      400.665      44.027    -317.870
  P      400.470      43.114    -319.179
  C      400.678      44.810    -321.118
  O      401.338      43.828    -320.318
  C      401.721      45.690    -321.808
  O      402.393      46.507    -320.826
  C      402.827      44.923    -322.526
  O      402.359      44.395    -323.760
  C      403.900      45.993    -322.639
  O      403.610      46.885    -323.733
  C      403.737      46.748    -321.301
  N      404.728      46.341    -320.304
  C      406.070      46.445    -320.680
  O      406.386      46.854    -321.803
  N      407.034      46.099    -319.773
  C      406.693      45.674    -318.595
  N      407.699      45.416    -317.710
  C      405.297      45.504    -318.173
  C      404.371      45.856    -319.065
  O      399.049      42.850    -319.552
  O      401.311      41.791    -318.877
  H      404.462      47.241    -324.047
  H      400.797      41.094    -318.404
  H      405.062      45.130    -317.184
  H      403.323      45.780    -318.831
  H      403.817      47.827    -321.461
  H      404.904      45.591    -322.801
  H      403.188      44.100    -321.902
  H      401.196      46.353    -322.512
  H      408.628      45.712    -317.983
  H      400.061      45.431    -320.467
  H      407.523      45.358    -316.718
  H      400.043      44.311    -321.846
  P      402.969      42.994    -324.246
  C      400.935      41.600    -323.464
  O      401.707      42.047    -324.559
  O      403.614      42.388    -322.914
  O      403.967      43.110    -325.354
  H      404.582      42.528    -322.910
  H      400.004      41.181    -323.850
  H      400.686      42.434    -322.792
  H      401.466      40.828    -322.912
  H      399.936      44.870    -316.164
  H      399.283      43.300    -316.561
  H      398.786      44.707    -317.470

 3  4  5  6  7  8  9  10  11  12  13  23  27  28  29  30  32 0
 6-311+G(2d,p)
 ****
 34  35 0
 6-311+G(2d,p)
 ****
 1  2  14  15  16  17  18  19  20  21  22  24  25  26 0
 3-21G
 ****
 31  33  36  37  38  39  40  41  42  43  44  45  46 0
 3-21G
 ****


