%nproc=1
%NoSave
%Mem=1900MB
#P OB98/GEN NMR

erre ene a

0 1
  C       52.142    -230.586    -221.654
  O       53.314    -231.362    -221.906
  P       53.418    -232.201    -223.274
  C       53.563    -234.652    -222.526
  O       54.280    -233.525    -223.008
  C       54.198    -235.985    -222.959
  O       54.480    -235.975    -224.392
  C       55.515    -236.322    -222.249
  O       55.540    -237.746    -222.071
  C       56.564    -235.881    -223.251
  O       57.837    -236.470    -223.006
  C       55.874    -236.305    -224.560
  N       56.450    -235.641    -225.724
  C       57.645    -236.161    -226.230
  O       58.228    -237.069    -225.632
  N       58.164    -235.612    -227.373
  C       57.609    -234.550    -227.882
  N       58.149    -234.051    -229.042
  C       56.456    -233.867    -227.272
  C       55.913    -234.479    -226.226
  O       53.817    -231.411    -224.485
  O       51.927    -232.787    -223.443
  H       57.776    -237.441    -223.155
  H       51.708    -232.819    -224.400
  H       56.087    -232.936    -227.684
  H       55.060    -234.065    -225.708
  H       55.945    -237.389    -224.701
  H       56.679    -234.786    -223.209
  H       55.614    -235.841    -221.268
  H       53.471    -236.788    -222.783
  H       58.953    -234.507    -229.435
  H       52.536    -234.610    -222.900
  H       57.751    -233.255    -229.512
  H       53.491    -234.594    -221.427
  P       55.717    -238.348    -220.595
  C       57.867    -239.786    -220.836
  O       56.461    -239.753    -220.725
  O       54.209    -238.792    -220.236
  O       56.219    -237.396    -219.555
  H       54.108    -238.802    -219.268
  H       58.215    -240.816    -220.627
  H       58.336    -239.112    -220.119
  H       58.169    -239.514    -221.852
  H       52.236    -230.095    -220.708
  H       51.286    -231.228    -221.640
  H       52.026    -229.854    -222.426

 3  4  5  6  7  8  9  10  11  12  13  23  27  28  29  30  32 0
 6-311+G(2d,p)
 ****
 34  35 0
 6-311+G(2d,p)
 ****
 1  2  14  15  16  17  18  19  20  21  22  24  25  26 0
 3-21G
 ****
 31  33  36  37  38  39  40  41  42  43  44  45  46 0
 3-21G
 ****


