%nproc=1
%NoSave
%Mem=1900MB
#P OB98/GEN NMR

erre ene a

0 1
  C      207.754     555.657    -241.517
  O      208.967     556.374    -241.311
  P      209.022     557.894    -241.821
  C      210.295     558.170    -244.075
  O      209.076     557.816    -243.423
  C      211.255     556.979    -244.110
  O      210.547     555.791    -244.509
  C      212.395     557.133    -245.098
  O      213.395     557.984    -244.584
  C      212.843     555.675    -245.256
  O      213.794     555.317    -244.240
  C      211.521     554.889    -245.089
  N      211.046     554.326    -246.332
  C      211.526     553.042    -246.642
  O      212.329     552.482    -245.885
  N      211.134     552.457    -247.821
  C      210.325     553.097    -248.623
  N      209.962     552.460    -249.772
  C      209.815     554.447    -248.339
  C      210.214     555.009    -247.196
  O      210.499     558.358    -241.414
  O      207.963     558.787    -241.253
  H      214.651     555.706    -244.535
  H      210.538     559.326    -241.288
  H      209.146     554.932    -249.034
  H      209.888     555.995    -246.916
  H      211.662     554.065    -244.367
  H      213.340     555.500    -246.214
  H      212.027     557.503    -246.055
  H      211.645     556.816    -243.094
  H      210.324     551.527    -249.944
  H      210.775     558.992    -243.533
  H      209.326     552.859    -250.443
  H      210.064     558.507    -245.088
  P      214.451     558.611    -245.612
  C      216.793     557.559    -245.796
  O      215.400     557.387    -246.026
  O      215.405     559.462    -244.642
  O      213.900     559.434    -246.727
  H      216.038     559.973    -245.184
  H      217.288     556.603    -245.964
  H      216.971     557.872    -244.761
  H      217.183     558.299    -246.495
  H      207.857     554.664    -241.132
  H      207.539     555.613    -242.564
  H      206.955     556.155    -241.010

 3  4  5  6  7  8  9  10  11  12  13  21  23  27  28  29  30  32 0
 6-311+G(2d,p)
 ****
 34  35 0
 6-311+G(2d,p)
 ****
 1  2  14  15  16  17  18  19  20  22  24  25  26 0
 3-21G
 ****
 31  33  36  37  38  39  40  41  42  43  44  45  46 0
 3-21G
 ****


