%nproc=1
%NoSave
%Mem=1900MB
#P OB98/GEN NMR

erre ene a

0 1
  C      591.573      57.467     313.572
  O      592.634      56.815     312.901
  P      593.817      56.201     313.795
  C      595.460      57.638     315.258
  O      594.871      57.393     313.993
  C      596.290      58.928     315.220
  O      595.419      60.059     315.023
  C      597.060      59.225     316.499
  O      598.234      58.435     316.613
  C      597.320      60.726     316.339
  O      598.440      60.946     315.460
  C      596.017      61.201     315.670
  N      595.085      61.830     316.609
  C      594.876      63.194     316.444
  O      595.429      63.863     315.574
  N      594.017      63.778     317.346
  C      593.407      63.149     318.398
  O      592.686      63.731     319.196
  C      593.692      61.718     318.534
  C      594.503      61.134     317.648
  O      594.508      55.219     312.733
  O      593.335      55.546     315.046
  H      594.372      55.525     311.816
  H      598.273      60.392     314.664
  H      593.835      64.765     317.233
  H      593.241      61.192     319.365
  H      594.731      60.075     317.740
  H      596.250      61.924     314.877
  H      597.552      61.211     317.292
  H      596.420      59.061     317.373
  H      596.976      58.866     314.361
  H      596.119      56.791     315.520
  H      594.681      57.708     316.019
  P      598.945      58.404     318.055
  C      599.367      60.485     319.577
  O      599.498      59.885     318.306
  O      600.258      57.538     317.741
  O      598.083      57.844     319.142
  H      600.673      57.778     316.885
  H      600.099      61.305     319.656
  H      599.558      59.766     320.386
  H      598.362      60.895     319.687
  H      590.863      57.823     312.855
  H      591.959      58.293     314.132
  H      591.094      56.778     314.236

 3  4  5  6  7  8  9  10  11  12  13  24  28  29  30  31  32 0
 6-311+G(2d,p)
 ****
 33  34 0
 6-311+G(2d,p)
 ****
 1  2  14  15  16  17  18  19  20  21  22  23  25  26  27 0
 3-21G
 ****
 35  36  37  38  39  40  41  42  43  44  45 0
 3-21G
 ****


