%nproc=1
%NoSave
%Mem=1900MB
#P OB98/GEN NMR

erre ene a

0 1
  C      -27.175      58.398    -458.372
  O      -26.159      58.859    -457.507
  H      -26.836      57.472    -458.844
  H      -27.374      59.134    -459.154
  H      -28.091      58.188    -457.813
  P      -26.409      60.216    -456.688
  C      -27.351      59.116    -454.539
  O      -27.637      59.863    -455.711
  C      -28.081      59.713    -453.339
  O      -27.529      60.997    -452.974
  C      -29.564      59.987    -453.564
  O      -30.366      58.818    -453.580
  C      -29.853      60.867    -452.361
  O      -29.934      60.057    -451.176
  C      -28.593      61.765    -452.345
  N      -28.796      63.033    -453.044
  C      -27.816      64.014    -452.859
  O      -26.845      63.804    -452.133
  N      -27.973      65.233    -453.476
  C      -29.030      65.458    -454.195
  N      -29.138      66.687    -454.777
  C      -30.095      64.460    -454.400
  C      -29.918      63.284    -453.805
  O      -26.576      61.455    -457.507
  O      -25.189      60.293    -455.656
  H      -30.680      59.444    -451.304
  H      -25.290      61.123    -455.129
  H      -30.969      64.708    -454.984
  H      -30.659      62.499    -453.906
  H      -28.277      61.975    -451.316
  H      -30.793      61.413    -452.443
  H      -29.720      60.579    -454.474
  H      -27.919      59.040    -452.488
  H      -28.392      67.349    -454.616
  H      -26.266      59.129    -454.383
  H      -29.959      66.973    -455.290
  H      -27.681      58.081    -454.663
  P      -31.766      58.905    -454.363
  C      -30.678      58.128    -456.606
  O      -31.405      59.127    -455.907
  O      -32.355      60.316    -453.892
  O      -32.709      57.774    -454.107
  H      -33.008      60.196    -453.176
  H      -30.527      58.440    -457.618
  H      -31.230      57.211    -456.594
  H      -29.730      57.980    -456.133

 6  7  8  9  10  11  12  13  14  15  16  26  30  31  32  33  35 0
 6-311+G(2d,p)
 ****
 37  38 0
 6-311+G(2d,p)
 ****
 1  2  3  4  5  17  18  19  20  21  22  23  24  25 0
 3-21G
 ****
 27  28  29  34  36  39  40  41  42  43  44  45  46 0
 3-21G
 ****


