%nproc=1
%NoSave
%Mem=1900MB
#P OB98/GEN NMR

erre ene a

0 1
  C     -146.234    -131.312     -58.322
  O     -145.476    -130.696     -59.348
  P     -146.028    -129.317     -59.957
  C     -147.983    -128.654     -61.540
  O     -147.293    -129.699     -60.867
  C     -148.271    -129.057     -62.983
  O     -149.099    -130.236     -63.029
  C     -149.025    -128.006     -63.786
  O     -148.172    -126.986     -64.278
  C     -149.565    -128.845     -64.931
  O     -148.536    -129.053     -65.917
  C     -149.908    -130.165     -64.230
  N     -154.469    -131.664     -65.822
  C     -153.223    -131.894     -66.369
  N     -153.196    -132.570     -67.539
  N     -152.104    -131.503     -65.821
  C     -152.286    -130.830     -64.657
  C     -153.469    -130.543     -64.014
  C     -154.699    -130.973     -64.639
  O     -155.834    -130.753     -64.231
  N     -153.250    -129.853     -62.852
  C     -151.940    -129.723     -62.785
  N     -151.314    -130.262     -63.880
  O     -144.912    -128.914     -61.031
  O     -146.258    -128.239     -58.952
  H     -148.121    -128.182     -66.076
  H     -144.999    -127.970     -61.265
  H     -155.303    -131.982     -66.286
  H     -151.406    -129.236     -61.981
  H     -149.654    -131.034     -64.846
  H     -150.406    -128.371     -65.447
  H     -154.027    -132.844     -68.043
  H     -149.864    -127.592     -63.212
  H     -152.302    -132.698     -67.995
  H     -147.314    -129.296     -63.466
  H     -147.371    -127.751     -61.527
  H     -148.919    -128.443     -61.012
  P     -148.882    -125.710     -64.947
  C     -150.148    -125.322     -67.182
  O     -149.410    -126.216     -66.371
  O     -147.647    -124.760     -65.309
  O     -149.883    -125.031     -64.073
  H     -147.930    -123.827     -65.330
  H     -150.194    -125.726     -68.197
  H     -149.671    -124.339     -67.218
  H     -151.166    -125.225     -66.795
  H     -145.750    -132.216     -58.015
  H     -147.213    -131.539     -58.689
  H     -146.311    -130.647     -57.487

 3  4  5  6  7  8  9  10  11  12  23  26  30  31 0
 6-311+G(2d,p)
 ****
 33  35  36  37  38 0
 6-311+G(2d,p)
 ****
 1  2  13  14  15  16  17  18  19  20  21  22  24  25 0
 3-21G
 ****
 27  28  29  32  34  39  40  41  42  43  44  45  46  47  48  49 0
 3-21G
 ****


