%nproc=1
%NoSave
%Mem=1900MB
#P OB98/GEN NMR

erre ene a

0 1
  C     -121.083     165.040     343.925
  O     -120.974     164.934     342.526
  H     -120.504     165.907     344.253
  H     -120.673     164.150     344.410
  H     -122.125     165.184     344.224
  P     -121.697     163.713     341.770
  C     -119.700     162.338     342.617
  O     -120.534     162.630     341.504
  C     -118.562     161.401     342.220
  O     -119.106     160.109     341.829
  C     -117.714     161.920     341.046
  O     -116.322     161.783     341.355
  C     -118.078     160.983     339.901
  O     -117.061     160.900     338.906
  C     -118.366     159.687     340.673
  N     -119.094     158.721     339.861
  C     -118.322     157.896     339.040
  O     -117.093     158.007     339.028
  N     -118.952     157.008     338.207
  C     -120.251     156.981     338.167
  N     -120.818     156.097     337.302
  C     -121.107     157.852     339.000
  C     -120.469     158.687     339.819
  O     -122.484     164.105     340.563
  O     -122.586     163.002     342.898
  H     -117.403     160.366     338.155
  H     -123.311     162.494     342.460
  H     -122.184     157.790     338.926
  H     -121.011     159.365     340.468
  H     -117.429     159.222     341.018
  H     -118.994     161.340     339.424
  H     -117.920     162.958     340.791
  H     -117.940     161.215     343.107
  H     -120.194     155.522     336.746
  H     -120.315     161.883     343.406
  H     -121.811     155.999     337.169
  H     -119.278     163.278     342.989
  P     -115.723     162.834     342.406
  C     -114.997     164.605     340.654
  O     -114.588     163.688     341.660
  O     -114.912     161.912     343.431
  O     -116.775     163.638     343.108
  H     -115.363     161.892     344.293
  H     -114.137     165.098     340.250
  H     -115.657     165.332     341.081
  H     -115.505     164.076     339.875

 6  7  8  9  10  11  12  13  14  15  16  26  30  31  32  33  35 0
 6-311+G(2d,p)
 ****
 37  38 0
 6-311+G(2d,p)
 ****
 1  2  3  4  5  17  18  19  20  21  22  23  24  25 0
 3-21G
 ****
 27  28  29  34  36  39  40  41  42  43  44  45  46 0
 3-21G
 ****


