%nproc=1
%NoSave
%Mem=1900MB
#P OB98/GEN NMR

erre ene a

0 1
  C       -3.270      22.222      44.819
  O       -3.966      23.370      45.263
  H       -3.419      22.117      43.741
  H       -3.663      21.332      45.317
  H       -2.200      22.322      45.022
  P       -3.741      23.808      46.786
  C       -5.966      25.201      46.865
  O       -5.188      24.140      47.404
  C       -7.411      24.744      46.680
  O       -7.476      23.497      45.960
  C       -8.136      24.450      47.982
  O       -8.437      25.614      48.716
  C       -9.360      23.716      47.455
  O      -10.333      24.636      46.940
  C       -8.742      22.876      46.310
  N       -8.575      21.476      46.674
  C       -9.739      20.698      46.656
  O      -10.816      21.200      46.336
  N       -9.654      19.380      47.029
  C       -8.509      18.876      47.365
  N       -8.495      17.567      47.733
  C       -7.254      19.652      47.372
  C       -7.361      20.934      47.025
  O       -3.079      25.256      46.641
  O       -2.954      22.848      47.617
  H       -9.873      25.171      46.263
  H       -3.593      25.865      46.086
  H       -6.320      19.188      47.651
  H       -6.489      21.574      47.004
  H       -9.375      22.921      45.415
  H       -9.856      23.133      48.233
  H       -7.555      23.742      48.586
  H       -7.935      25.508      46.091
  H       -9.378      17.071      47.737
  H       -5.546      25.551      45.918
  H       -7.670      17.077      48.045
  H       -5.922      26.034      47.574
  P       -7.714      25.905      50.117
  C      -10.087      26.382      50.994
  O       -8.843      25.738      51.248
  O       -6.953      27.185      50.185
  O       -6.814      24.600      50.344
  H       -7.312      23.764      50.386
  H      -10.755      26.202      51.810
  H      -10.512      25.993      50.093
  H       -9.929      27.435      50.888

 6  7  8  9  10  11  12  13  14  15  16  26  30  31  32  33  35 0
 6-311+G(2d,p)
 ****
 37  38 0
 6-311+G(2d,p)
 ****
 1  2  3  4  5  17  18  19  20  21  22  23  24  25 0
 3-21G
 ****
 27  28  29  34  36  39  40  41  42  43  44  45  46 0
 3-21G
 ****


