%nproc=1
%NoSave
%Mem=1900MB
#P OB98/GEN NMR

erre ene a

0 1
  C      230.208     -25.244      69.675
  O      229.279     -26.301      69.379
  P      227.727     -26.106      69.761
  C      226.605     -25.269      67.550
  O      226.842     -26.346      68.445
  C      225.411     -25.588      66.646
  O      224.993     -24.407      65.924
  C      225.691     -26.631      65.576
  O      225.708     -27.946      66.107
  C      224.547     -26.384      64.604
  O      223.350     -27.052      65.039
  C      224.377     -24.852      64.693
  N      224.932     -24.158      63.536
  C      224.066     -23.940      62.471
  O      222.906     -24.356      62.450
  N      224.588     -23.258      61.405
  C      225.881     -22.842      61.277
  O      226.296     -22.252      60.284
  C      226.771     -23.172      62.399
  C      226.264     -23.810      63.456
  O      227.626     -24.517      69.943
  O      227.273     -26.810      70.996
  H      222.649     -26.817      64.399
  H      226.912     -24.306      70.574
  H      223.969     -23.067      60.633
  H      227.812     -22.879      62.323
  H      226.909     -24.058      64.298
  H      223.314     -24.596      64.783
  H      224.766     -26.745      63.596
  H      226.640     -26.405      65.076
  H      224.574     -25.908      67.287
  H      227.495     -25.114      66.928
  H      226.419     -24.360      68.130
  P      227.055     -28.796      65.890
  C      228.504     -28.456      68.037
  O      227.527     -29.218      67.362
  O      228.072     -27.644      65.432
  O      226.889     -29.908      64.906
  H      227.878     -26.797      65.867
  H      228.434     -27.395      67.781
  H      229.497     -28.829      67.775
  H      228.356     -28.570      69.112
  H      231.189     -25.533      69.360
  H      230.212     -25.058      70.729
  H      229.914     -24.355      69.157

 3  4  5  6  7  8  9  10  11  12  13  23  28  29  30  31  32 0
 6-311+G(2d,p)
 ****
 33  34 0
 6-311+G(2d,p)
 ****
 1  2  14  15  16  17  18  19  20  21  22  24  25  26 0
 3-21G
 ****
 27  35  36  37  38  39  40  41  42  43  44  45 0
 3-21G
 ****


