%nproc=1
%NoSave
%Mem=1900MB
#P OB98/GEN NMR

erre ene a

0 1
  C      -79.941    -100.246      20.308
  O      -79.697     -99.698      21.588
  H      -78.989    -100.327      19.775
  H      -80.610     -99.602      19.731
  H      -80.375    -101.245      20.402
  P      -80.947     -99.323      22.521
  C      -81.687     -97.394      20.980
  O      -82.041     -98.641      21.562
  C      -82.751     -96.335      21.277
  O      -84.014     -96.778      20.707
  C      -82.968     -96.081      22.775
  O      -83.217     -94.686      22.966
  C      -84.213     -96.893      23.070
  O      -84.890     -96.410      24.215
  C      -84.998     -96.784      21.759
  N      -85.948     -97.887      21.616
  C      -87.148     -97.773      22.328
  O      -87.370     -96.775      23.018
  N      -88.042     -98.815      22.296
  C      -87.742     -99.904      21.656
  N      -88.654    -100.913      21.698
  C      -86.473    -100.078      20.914
  C      -85.635     -99.041      20.931
  O      -80.637     -98.551      23.761
  O      -81.602    -100.745      22.863
  H      -85.608     -97.034      24.458
  H      -81.217    -101.101      23.686
  H      -86.268    -101.006      20.401
  H      -84.674     -99.084      20.425
  H      -85.550     -95.836      21.712
  H      -83.936     -97.939      23.261
  H      -82.117     -96.397      23.389
  H      -82.475     -95.408      20.759
  H      -89.495    -100.755      22.241
  H      -81.604     -97.539      19.894
  H      -88.511    -101.820      21.273
  H      -80.715     -97.067      21.367
  P      -82.358     -93.841      24.025
  C      -84.105     -93.345      25.832
  O      -82.940     -94.097      25.503
  O      -82.179     -92.394      23.673
  O      -80.939     -94.590      24.051
  H      -80.236     -93.940      24.255
  H      -84.414     -93.583      26.828
  H      -84.891     -93.587      25.148
  H      -83.885     -92.300      25.767

 6  7  8  9  10  11  12  13  14  15  16  26  30  31  32  33  35 0
 6-311+G(2d,p)
 ****
 37  38 0
 6-311+G(2d,p)
 ****
 1  2  3  4  5  17  18  19  20  21  22  23  24  25 0
 3-21G
 ****
 27  28  29  34  36  39  40  41  42  43  44  45  46 0
 3-21G
 ****


