%nproc=1
%NoSave
%Mem=1900MB
#P OB98/GEN NMR

erre ene a

0 1
  C      -96.175     353.396    -268.156
  O      -95.860     353.604    -269.533
  P      -95.895     355.100    -270.110
  C      -94.621     356.459    -271.902
  O      -94.984     355.162    -271.431
  C      -93.770     356.348    -273.174
  O      -92.488     355.744    -272.843
  C      -94.370     355.463    -274.281
  O      -95.243     356.067    -275.231
  C      -93.117     355.057    -275.046
  O      -92.755     356.085    -275.984
  C      -92.048     354.948    -273.959
  N      -91.242     350.137    -275.535
  C      -91.433     351.293    -276.211
  N      -91.641     352.532    -275.714
  C      -91.627     352.519    -274.368
  C      -91.444     351.417    -273.546
  C      -91.241     350.173    -274.180
  N      -91.060     349.004    -273.487
  N      -91.502     351.791    -272.219
  C      -91.739     353.089    -272.245
  N      -91.810     353.579    -273.525
  O      -95.664     356.187    -269.115
  O      -97.377     355.194    -270.717
  H      -92.664     356.908    -275.477
  H      -97.731     356.094    -270.560
  H      -91.419     351.208    -277.296
  H      -91.862     353.716    -271.369
  H      -91.078     355.344    -274.288
  H      -93.265     354.140    -275.638
  H      -94.851     354.575    -273.849
  H      -93.580     357.360    -273.574
  H      -94.053     356.978    -271.120
  H      -90.974     348.152    -274.020
  H      -91.118     349.005    -272.479
  H      -95.540     357.021    -272.048
  P      -96.628     355.366    -275.659
  C      -98.838     356.387    -276.613
  O      -97.430     356.482    -276.482
  O      -97.393     354.741    -274.544
  O      -96.158     354.345    -276.804
  H      -95.845     354.775    -277.618
  H      -99.220     357.332    -277.012
  H      -99.315     356.199    -275.646
  H      -99.096     355.589    -277.321
  H      -96.107     352.353    -267.928
  H      -97.169     353.740    -267.962
  H      -95.484     353.940    -267.546

 3  4  5  6  7  8  9  10  11  12  22  25  29  30  31  32 0
 6-311+G(2d,p)
 ****
 33  36  37 0
 6-311+G(2d,p)
 ****
 1  2  13  14  15  16  17  18  19  20  21  23  24  26 0
 3-21G
 ****
 27  28  34  35  38  39  40  41  42  43  44  45  46  47  48 0
 3-21G
 ****


