%nproc=1
%NoSave
%Mem=1900MB
#P OB98/GEN NMR

erre ene a

0 1
  C      386.178     969.284     177.654
  O      385.734     968.555     178.777
  H      387.030     968.762     177.212
  H      386.502     970.283     177.971
  H      385.391     969.371     176.905
  P      384.263     968.822     179.342
  C      384.888     968.906     181.844
  O      384.167     968.221     180.823
  C      384.657     968.285     183.223
  O      383.294     968.511     183.634
  C      384.867     966.758     183.218
  O      386.199     966.355     183.441
  C      383.970     966.319     184.363
  O      384.661     966.358     185.625
  C      382.832     967.360     184.354
  N      378.765     964.286     184.810
  C      379.903     964.369     185.616
  N      379.953     963.485     186.640
  N      380.869     965.213     185.410
  C      380.718     965.950     184.288
  C      379.651     965.953     183.412
  C      378.544     965.070     183.694
  O      377.517     964.974     183.024
  N      379.870     966.816     182.372
  C      381.093     967.269     182.561
  N      381.611     966.842     183.768
  O      383.349     967.805     178.500
  O      383.758     970.230     179.184
  H      385.403     965.735     185.583
  H      382.459     968.186     178.369
  H      378.037     963.637     185.038
  H      381.626     967.942     181.900
  H      382.589     967.692     185.370
  H      383.630     965.295     184.227
  H      379.275     962.746     186.789
  H      384.483     966.322     182.296
  H      380.850     963.373     187.138
  H      385.302     968.783     183.957
  H      384.535     969.935     181.839
  H      385.960     968.921     181.613
  P      387.036     965.599     182.304
  C      388.441     964.625     184.316
  O      388.368     965.014     182.952
  O      387.558     966.793     181.385
  O      386.273     964.585     181.524
  H      387.007     966.901     180.601
  H      389.425     964.264     184.532
  H      387.727     963.851     184.505
  H      388.226     965.468     184.939

 6  7  8  9  10  11  12  13  14  15  26  29  33  34 0
 6-311+G(2d,p)
 ****
 36  38  39  40  41 0
 6-311+G(2d,p)
 ****
 1  2  3  4  5  16  17  18  19  20  21  22  23  24  25 0
 3-21G
 ****
 27  28  30  31  32  35  37  42  43  44  45  46  47 0
 3-21G
 ****
 48  49 0
 3-21G
 ****


