%nproc=1
%NoSave
%Mem=1900MB
#P OB98/GEN NMR

erre ene a

0 1
  C     -248.230     201.956    -376.452
  O     -247.774     202.183    -377.790
  P     -246.445     203.019    -378.103
  C     -245.292     201.443    -379.788
  O     -245.263     201.997    -378.471
  C     -245.851     200.018    -379.793
  O     -247.172     199.989    -379.219
  C     -245.975     199.393    -381.178
  O     -244.721     198.930    -381.635
  C     -247.010     198.301    -380.915
  O     -246.380     197.142    -380.338
  C     -247.937     198.973    -379.898
  N     -252.768     198.079    -381.306
  C     -251.855     197.307    -380.687
  N     -250.582     197.615    -380.356
  C     -250.297     198.878    -380.694
  C     -251.133     199.794    -381.331
  C     -252.428     199.342    -381.643
  N     -253.356     200.135    -382.283
  N     -250.477     200.988    -381.542
  C     -249.277     200.812    -381.024
  N     -249.124     199.560    -380.504
  O     -246.078     204.016    -377.054
  O     -246.744     203.754    -379.496
  H     -247.078     196.479    -380.180
  H     -246.226     204.580    -379.551
  H     -252.182     196.304    -380.439
  H     -248.500     201.559    -381.002
  H     -248.275     198.269    -379.133
  H     -247.516     197.971    -381.829
  H     -246.393     200.123    -381.882
  H     -245.204     199.401    -379.149
  H     -244.268     201.439    -380.181
  H     -254.252     199.728    -382.504
  H     -253.090     201.064    -382.580
  H     -245.903     202.092    -380.425
  P     -244.127     199.469    -383.029
  C     -241.765     200.297    -382.475
  O     -243.117     200.661    -382.679
  O     -245.134     199.776    -384.083
  O     -243.139     198.295    -383.491
  H     -243.094     198.275    -384.465
  H     -241.638     199.897    -381.462
  H     -241.136     201.186    -382.584
  H     -241.442     199.546    -383.202
  H     -249.130     201.378    -376.475
  H     -248.421     202.895    -375.976
  H     -247.479     201.425    -375.905

 3  4  5  6  7  8  9  10  11  12  22  25  29  30  31  32 0
 6-311+G(2d,p)
 ****
 33  36  37 0
 6-311+G(2d,p)
 ****
 1  2  13  14  15  16  17  18  19  20  21  23  24  26 0
 3-21G
 ****
 27  28  34  35  38  39  40  41  42  43  44  45  46  47  48 0
 3-21G
 ****


