%nproc=1
%NoSave
%Mem=1900MB
#P OB98/GEN NMR

erre ene a

0 1
  C      450.726     479.275    -107.557
  O      449.494     479.129    -108.233
  H      450.841     478.434    -106.863
  H      450.734     480.201    -106.978
  H      451.564     479.263    -108.262
  P      449.150     480.145    -109.424
  C      450.824     479.196    -111.147
  O      449.454     479.375    -110.796
  C      450.926     478.271    -112.358
  O      450.626     476.908    -111.974
  C      449.964     478.610    -113.483
  O      450.400     479.731    -114.216
  C      449.955     477.297    -114.260
  O      451.100     477.211    -115.122
  C      450.036     476.259    -113.123
  N      448.740     475.673    -112.791
  C      448.412     474.480    -113.431
  O      449.136     473.943    -114.259
  N      447.195     473.948    -113.104
  C      446.246     474.522    -112.303
  O      445.133     474.044    -112.119
  C      446.642     475.797    -111.677
  C      447.848     476.302    -111.945
  O      449.747     481.506    -109.314
  O      447.546     480.215    -109.402
  H      451.006     477.924    -115.782
  H      447.263     481.064    -109.008
  H      446.934     473.089    -113.567
  H      445.918     476.279    -111.027
  H      448.151     477.240    -111.495
  H      450.718     475.448    -113.401
  H      449.068     477.196    -114.884
  H      448.955     478.780    -113.075
  H      451.968     478.294    -112.721
  H      451.347     478.752    -110.299
  H      451.259     480.174    -111.373
  P      449.361     480.543    -115.129
  C      449.436     482.762    -113.821
  O      449.755     482.100    -115.048
  O      447.917     480.243    -114.885
  O      449.779     480.150    -116.620
  H      449.026     479.712    -117.067
  H      449.740     483.786    -113.879
  H      449.948     482.283    -113.013
  H      448.380     482.713    -113.653

 6  7  8  9  10  11  12  13  14  15  16  26  31  32  33  34  35 0
 6-311+G(2d,p)
 ****
 36  37 0
 6-311+G(2d,p)
 ****
 1  2  3  4  5  17  18  19  20  21  22  23  24  25 0
 3-21G
 ****
 27  28  29  30  38  39  40  41  42  43  44  45 0
 3-21G
 ****


