%nproc=1
%NoSave
%Mem=1900MB
#P OB98/GEN NMR

erre ene a

0 1
  C     -250.328     342.187     184.896
  O     -251.566     342.705     185.354
  P     -252.850     341.740     185.297
  C     -254.569     343.344     184.110
  O     -253.701     342.222     184.024
  C     -255.115     343.689     182.720
  O     -254.024     343.942     181.813
  C     -255.937     342.584     182.066
  O     -257.245     342.501     182.614
  C     -255.881     343.004     180.602
  O     -256.843     344.042     180.343
  C     -254.450     343.562     180.487
  N     -253.509     342.620     179.881
  C     -253.929     342.002     178.706
  O     -255.019     342.224     178.181
  N     -253.049     341.105     178.156
  C     -251.853     340.727     178.691
  O     -251.120     339.883     178.181
  C     -251.478     341.383     179.951
  C     -252.311     342.287     180.480
  O     -253.672     342.269     186.561
  O     -252.496     340.293     185.327
  H     -253.475     343.202     186.755
  H     -256.642     344.764     180.970
  H     -253.320     340.664     177.292
  H     -250.540     341.101     180.412
  H     -252.055     342.775     181.412
  H     -254.446     344.480     179.886
  H     -256.102     342.175     179.919
  H     -255.428     341.619     182.192
  H     -255.708     344.610     182.807
  H     -254.014     344.197     184.507
  H     -255.387     343.105     184.794
  P     -258.052     341.135     182.348
  C     -259.687     342.534     180.859
  O     -258.903     341.373     181.008
  O     -259.138     341.188     183.523
  O     -257.185     339.919     182.357
  H     -259.524     342.074     183.644
  H     -259.888     342.688     179.798
  H     -259.174     343.415     181.257
  H     -260.638     342.400     181.385
  H     -249.570     342.936     184.993
  H     -250.419     341.903     183.868
  H     -250.061     341.332     185.481

 3  4  5  6  7  8  9  10  11  12  13  24  28  29  30  31  32 0
 6-311+G(2d,p)
 ****
 33  34 0
 6-311+G(2d,p)
 ****
 1  2  14  15  16  17  18  19  20  21  22  23  25  26  27 0
 3-21G
 ****
 35  36  37  38  39  40  41  42  43  44  45 0
 3-21G
 ****


