%nproc=1
%NoSave
%Mem=1900MB
#P OB98/GEN NMR

erre ene a

0 1
  C      344.388     100.145    -139.269
  O      344.841      99.658    -140.517
  H      344.453      99.361    -138.512
  H      345.027     100.980    -138.965
  H      343.357     100.502    -139.351
  P      344.027      98.429    -141.153
  C      345.736      96.725    -140.182
  O      344.383      97.154    -140.241
  C      345.865      95.560    -139.207
  O      345.274      95.911    -137.934
  C      345.154      94.287    -139.652
  O      345.921      93.541    -140.582
  C      345.033      93.553    -138.326
  O      346.301      92.969    -137.977
  C      344.694      94.700    -137.364
  N      340.402      92.728    -135.392
  C      341.674      92.269    -135.426
  N      342.761      92.853    -135.974
  C      342.433      94.033    -136.531
  C      341.184      94.623    -136.580
  C      340.128      93.921    -135.967
  N      338.829      94.377    -135.942
  N      341.232      95.823    -137.269
  C      342.502      95.965    -137.599
  N      343.265      94.903    -137.182
  O      344.811      98.126    -142.516
  O      342.567      98.656    -141.368
  H      346.922      93.707    -137.835
  H      344.235      97.633    -143.130
  H      341.840      91.303    -134.950
  H      342.915      96.809    -138.133
  H      345.133      94.561    -136.369
  H      344.300      92.744    -138.347
  H      344.146      94.498    -140.037
  H      346.934      95.370    -139.039
  H      346.363      97.554    -139.839
  H      338.125      93.716    -135.645
  H      338.591      95.188    -136.499
  H      346.061      96.420    -141.182
  P      345.149      92.927    -141.849
  C      344.670      90.751    -140.497
  O      344.136      91.831    -141.258
  O      346.272      92.041    -142.566
  O      344.547      93.941    -142.769
  H      346.093      91.953    -143.519
  H      343.874      90.112    -140.177
  H      345.184      91.137    -139.641
  H      345.354      90.193    -141.102

 6  7  8  9  10  11  12  13  14  15  25  28  32  33  34  35 0
 6-311+G(2d,p)
 ****
 36  39  40 0
 6-311+G(2d,p)
 ****
 1  2  3  4  5  16  17  18  19  20  21  22  23  24 0
 3-21G
 ****
 26  27  29  30  31  37  38  41  42  43  44  45  46  47 0
 3-21G
 ****
 48 0
 3-21G
 ****


