%nproc=1
%NoSave
%Mem=1900MB
#P OB98/GEN NMR

erre ene a

0 1
  C      872.971     115.744    -175.835
  O      873.182     116.039    -174.471
  H      873.397     116.552    -176.440
  H      871.897     115.681    -176.050
  H      873.471     114.814    -176.100
  P      872.589     114.992    -173.408
  C      870.412     116.393    -173.264
  O      870.998     115.126    -173.554
  C      868.890     116.298    -173.263
  O      868.407     116.015    -174.598
  C      868.327     115.195    -172.374
  O      868.235     115.638    -171.027
  C      866.951     114.998    -172.985
  O      866.046     116.016    -172.489
  C      867.207     115.206    -174.487
  N      864.901     111.564    -177.263
  C      864.401     112.530    -176.484
  N      865.073     113.439    -175.730
  C      866.409     113.259    -175.853
  C      867.064     112.307    -176.616
  C      866.249     111.427    -177.362
  N      866.766     110.429    -178.166
  N      868.422     112.435    -176.499
  C      868.590     113.486    -175.708
  N      867.397     114.002    -175.269
  O      873.135     115.096    -172.024
  O      872.892     113.603    -174.152
  H      865.183     115.847    -172.912
  H      872.710     113.686    -175.106
  H      863.319     112.602    -176.446
  H      869.549     113.925    -175.468
  H      866.390     115.767    -174.972
  H      866.509     114.028    -172.729
  H      868.905     114.262    -172.469
  H      868.488     117.286    -172.973
  H      870.735     117.136    -174.005
  H      866.119     109.724    -178.494
  H      867.761     110.256    -178.117
  H      870.771     116.710    -172.285
  P      868.475     114.628    -169.797
  C      865.979     114.026    -169.611
  O      867.279     113.560    -169.908
  O      868.624     115.290    -168.477
  O      869.769     113.783    -170.233
  H      870.144     113.338    -169.455
  H      865.279     113.224    -169.721
  H      865.722     114.819    -170.282
  H      865.951     114.388    -168.604

 6  7  8  9  10  11  12  13  14  15  25  28  32  33  34  35 0
 6-311+G(2d,p)
 ****
 36  39  40 0
 6-311+G(2d,p)
 ****
 1  2  3  4  5  16  17  18  19  20  21  22  23  24 0
 3-21G
 ****
 26  27  29  30  31  37  38  41  42  43  44  45  46  47 0
 3-21G
 ****
 48 0
 3-21G
 ****


