%nproc=1
%NoSave
%Mem=1900MB
#P OB98/GEN NMR

erre ene a

0 1
  C      318.654     110.081      57.578
  O      319.996     109.664      57.420
  H      318.026     109.516      56.884
  H      318.564     111.148      57.353
  H      318.315     109.887      58.599
  P      321.079     110.368      58.369
  C      320.267     109.968      60.814
  O      321.082     109.531      59.737
  C      320.993     109.764      62.150
  O      320.422     110.675      63.136
  C      320.850     108.343      62.723
  O      322.020     108.068      63.513
  C      319.645     108.500      63.637
  O      319.529     107.404      64.514
  C      319.960     109.865      64.241
  N      318.541     113.428      67.621
  C      319.751     113.088      67.128
  N      320.049     112.137      66.223
  C      318.936     111.515      65.799
  C      317.632     111.760      66.202
  C      317.448     112.767      67.163
  N      316.218     113.111      67.671
  N      316.752     110.915      65.544
  C      317.513     110.178      64.759
  N      318.837     110.500      64.886
  O      320.374     111.749      58.768
  O      322.424     110.581      57.761
  H      319.596     106.557      64.026
  H      320.676     112.460      58.172
  H      320.593     113.653      67.521
  H      317.163     109.400      64.095
  H      320.776     109.808      64.972
  H      318.718     108.535      63.055
  H      320.737     107.575      61.954
  H      322.045     110.045      62.032
  H      319.337     109.390      60.803
  H      320.033     111.031      60.688
  H      316.175     113.834      68.371
  H      315.399     112.614      67.352
  P      323.337     107.496      62.785
  C      325.050     109.403      62.256
  O      324.583     108.427      63.177
  O      323.080     107.912      61.258
  O      323.554     106.024      62.902
  H      323.537     107.284      60.668
  H      325.880     109.927      62.682
  H      324.263     110.096      62.041
  H      325.358     108.921      61.352

 6  7  8  9  10  11  12  13  14  15  25  28  32  33  34  35 0
 6-311+G(2d,p)
 ****
 36  37  40 0
 6-311+G(2d,p)
 ****
 1  2  3  4  5  16  17  18  19  20  21  22  23  24 0
 3-21G
 ****
 26  27  29  30  31  38  39 41  42  43  44  45  46  47  48 0
 3-21G
 ****


