%nproc=1
%NoSave
%Mem=1900MB
#P OB98/GEN NMR

erre ene a

0 1
  C      105.810      -7.295    -283.202
  O      104.753      -7.526    -282.292
  H      105.862      -8.133    -283.901
  H      106.758      -7.225    -282.664
  H      105.634      -6.375    -283.766
  P      104.425      -6.357    -281.245
  C      105.761      -7.572    -279.367
  O      105.596      -6.395    -280.145
  C      106.087      -7.194    -277.921
  O      107.454      -6.704    -277.867
  C      105.181      -6.090    -277.363
  O      104.925      -6.350    -275.981
  C      106.031      -4.839    -277.503
  O      105.665      -3.795    -276.612
  C      107.429      -5.406    -277.238
  N      108.491      -4.553    -277.766
  C      109.166      -3.736    -276.865
  O      108.983      -3.735    -275.647
  N      110.090      -2.885    -277.415
  C      110.380      -2.757    -278.740
  O      111.203      -1.960    -279.174
  C      109.629      -3.641    -279.645
  C      108.732      -4.483    -279.124
  O      103.157      -6.922    -280.446
  O      104.178      -5.011    -281.835
  H      102.329      -6.645    -280.882
  H      106.199      -3.005    -276.836
  H      110.589      -2.286    -276.774
  H      109.826      -3.562    -280.706
  H      108.152      -5.137    -279.766
  H      107.580      -5.562    -276.162
  H      105.959      -4.451    -278.526
  H      104.237      -6.003    -277.902
  H      106.041      -8.096    -277.299
  H      106.584      -8.162    -279.780
  H      104.840      -8.163    -279.406
  P      103.516      -7.023    -275.604
  C      102.760      -4.783    -274.485
  O      102.482      -5.807    -275.426
  O      103.795      -7.529    -274.114
  O      103.101      -8.084    -276.569
  H      104.356      -6.926    -273.599
  H      101.971      -4.061    -274.500
  H      103.684      -4.307    -274.739
  H      102.835      -5.209    -273.506

 6  7  8  9  10  11  12  13  14  15  16  27  31  32  33  34  35 0
 6-311+G(2d,p)
 ****
 36  37 0
 6-311+G(2d,p)
 ****
 1  2  3  4  5  17  18  19  20  21  22  23  24  25 0
 3-21G
 ****
 26  28  29  30  38  39  40  41  42  43  44  45 0
 3-21G
 ****


