%nproc=1
%NoSave
%Mem=1900MB
#P OB98/GEN NMR

erre ene a

0 1
  C      -56.735      43.305     -70.965
  O      -55.344      43.433     -70.760
  H      -57.073      42.315     -70.650
  H      -57.251      44.060     -70.366
  H      -56.979      43.464     -72.018
  P      -54.401      42.385     -71.525
  C      -52.894      41.480     -69.619
  O      -53.000      42.351     -70.737
  C      -52.404      42.256     -68.399
  O      -53.561      42.729     -67.664
  C      -51.525      41.442     -67.434
  O      -50.252      42.074     -67.273
  C      -52.264      41.504     -66.105
  O      -51.395      41.675     -64.987
  C      -53.202      42.693     -66.278
  N      -54.911      42.952     -61.484
  C      -53.822      43.491     -62.075
  N      -53.479      43.474     -63.379
  C      -54.413      42.837     -64.106
  C      -55.585      42.258     -63.650
  C      -55.815      42.316     -62.265
  N      -56.897      41.719     -61.657
  N      -56.289      41.689     -64.695
  C      -55.533      41.883     -65.756
  N      -54.380      42.556     -65.446
  O      -54.044      43.141     -72.891
  O      -55.015      41.049     -71.778
  H      -51.957      41.645     -64.189
  H      -54.178      42.536     -73.645
  H      -53.128      43.998     -61.410
  H      -55.745      41.522     -66.755
  H      -52.714      43.643     -66.028
  H      -52.825      40.572     -65.968
  H      -51.386      40.405     -67.759
  H      -51.861      43.142     -68.751
  H      -52.178      40.682     -69.844
  H      -56.920      41.709     -60.650
  H      -57.514      41.151     -62.219
  H      -53.872      41.028     -69.426
  P      -49.000      41.366     -67.996
  C      -47.709      40.415     -65.944
  O      -47.769      41.403     -66.966
  O      -48.579      42.436     -69.110
  O      -49.316      40.034     -68.587
  H      -48.142      41.985     -69.857
  H      -46.837      40.574     -65.345
  H      -47.663      39.443     -66.390
  H      -48.582      40.485     -65.329

 6  7  8  9  10  11  12  13  14  15  25  28  32  33  34  35 0
 6-311+G(2d,p)
 ****
 36  39  40 0
 6-311+G(2d,p)
 ****
 1  2  3  4  5  16  17  18  19  20  21  22  23  24 0
 3-21G
 ****
 26  27  29  30  31  37  38  41  42  43  44  45  46  47  48 0
 3-21G
 ****


