%nproc=1
%NoSave
%Mem=1900MB
#P OB98/GEN NMR

erre ene a

0 1
  C      386.171    -146.442     243.350
  O      386.478    -145.066     243.629
  P      386.764    -144.670     245.157
  C      385.352    -144.098     247.270
  O      385.359    -144.565     245.928
  C      383.980    -143.506     247.618
  O      383.783    -142.236     246.977
  C      382.821    -144.374     247.149
  O      382.632    -145.474     248.022
  C      381.661    -143.382     247.147
  O      380.988    -143.350     248.414
  C      382.364    -142.029     246.864
  N      382.011    -141.470     245.568
  C      381.156    -140.367     245.594
  O      380.731    -139.927     246.666
  N      380.787    -139.796     244.397
  C      381.216    -140.304     243.284
  N      380.801    -139.694     242.134
  C      382.096    -141.489     243.213
  C      382.448    -142.016     244.382
  O      387.242    -143.148     245.053
  O      387.793    -145.529     245.823
  H      380.396    -142.566     248.384
  H      387.897    -142.952     245.752
  H      382.416    -141.879     242.257
  H      383.097    -142.889     244.428
  H      382.092    -141.289     247.631
  H      380.911    -143.641     246.394
  H      383.006    -144.728     246.124
  H      383.926    -143.368     248.706
  H      380.200    -138.890     242.218
  H      386.122    -143.345     247.420
  H      381.074    -140.011     241.208
  H      385.602    -144.937     247.943
  P      383.035    -146.931     247.490
  C      381.879    -148.624     245.936
  O      381.943    -147.275     246.368
  O      382.566    -147.872     248.700
  O      384.461    -147.158     247.120
  H      382.842    -148.795     248.541
  H      380.977    -148.768     245.344
  H      381.842    -149.298     246.799
  H      382.754    -148.860     245.320
  H      386.004    -146.564     242.300
  H      385.290    -146.727     243.887
  H      386.990    -147.059     243.655

 3  4  5  6  7  8  9  10  11  12  13  21  23  27  28  29  30  32 0
 6-311+G(2d,p)
 ****
 34  35 0
 6-311+G(2d,p)
 ****
 1  2  14  15  16  17  18  19  20  22  24  25  26 0
 3-21G
 ****
 31  33  36  37  38  39  40  41  42  43  44  45  46 0
 3-21G
 ****


