%nproc=1
%NoSave
%Mem=1900MB
#P OB98/GEN NMR

erre ene a

0 1
  C     -100.157     208.557    -379.594
  O     -100.262     209.099    -378.280
  P     -101.705     209.623    -377.806
  C     -101.838     212.160    -378.354
  O     -102.072     210.830    -378.802
  C     -103.056     213.040    -378.636
  O     -103.311     213.100    -380.050
  C     -104.352     212.550    -378.004
  O     -104.458     212.927    -376.636
  C     -105.377     213.291    -378.844
  O     -105.491     214.655    -378.388
  C     -104.745     213.245    -380.238
  N     -108.699     211.588    -383.026
  C     -108.537     212.690    -382.263
  N     -107.459     213.057    -381.543
  C     -106.489     212.124    -381.629
  C     -106.530     210.934    -382.338
  C     -107.697     210.675    -383.073
  N     -107.854     209.560    -383.868
  N     -105.350     210.238    -382.182
  C     -104.604     210.999    -381.405
  N     -105.244     212.156    -381.057
  O     -101.381     210.370    -376.424
  O     -102.739     208.562    -377.644
  H     -105.830     214.620    -377.470
  H     -102.183     210.406    -375.871
  H     -109.381     213.370    -382.240
  H     -103.603     210.755    -381.083
  H     -104.902     214.177    -380.797
  H     -106.379     212.851    -378.774
  H     -104.476     211.463    -378.143
  H     -102.821     214.058    -378.293
  H     -100.977     212.567    -378.878
  H     -108.637     209.543    -384.502
  H     -107.037     208.994    -384.057
  H     -101.621     212.143    -377.279
  P     -104.637     211.734    -375.574
  C     -106.886     212.837    -374.863
  O     -106.209     211.661    -375.272
  O     -104.008     212.349    -374.235
  O     -103.978     210.456    -375.974
  H     -103.692     211.640    -373.649
  H     -107.954     212.694    -375.004
  H     -106.563     213.705    -375.457
  H     -106.687     213.024    -373.805
  H      -99.148     208.250    -379.774
  H     -100.437     209.301    -380.310
  H     -100.808     207.713    -379.685

 3  4  5  6  7  8  9  10  11  12  22  25  29  30  31  32 0
 6-311+G(2d,p)
 ****
 33  36  37 0
 6-311+G(2d,p)
 ****
 1  2  13  14  15  16  17  18  19  20  21  23  24  26 0
 3-21G
 ****
 27  28  34  35  38  39  40  41  42  43  44  45  46  47  48 0
 3-21G
 ****


