%nproc=1
%NoSave
%Mem=1900MB
#P OB98/GEN NMR

erre ene a

0 1
  C      -78.315    -985.408     209.357
  O      -79.457    -985.918     210.012
  H      -78.636    -984.684     208.605
  H      -77.777    -986.219     208.847
  H      -77.652    -984.917     210.064
  P      -79.251    -987.016     211.162
  C      -80.475    -985.866     213.131
  O      -79.227    -986.160     212.523
  C      -80.800    -986.900     214.206
  O      -79.791    -986.909     215.248
  C      -82.117    -986.673     214.951
  O      -83.271    -986.975     214.178
  C      -81.932    -987.621     216.112
  O      -82.139    -988.974     215.667
  C      -80.446    -987.365     216.468
  N      -80.287    -986.376     217.538
  C      -78.974    -986.039     217.893
  O      -78.027    -986.566     217.331
  N      -78.781    -985.134     218.901
  C      -79.801    -984.620     219.529
  N      -79.535    -983.735     220.522
  C      -81.191    -984.972     219.203
  C      -81.362    -985.841     218.206
  O      -78.111    -987.953     210.974
  O      -80.673    -987.756     211.272
  H      -81.556    -989.121     214.905
  H      -80.596    -988.453     211.963
  H      -82.007    -984.539     219.770
  H      -82.361    -986.143     217.908
  H      -79.954    -988.297     216.769
  H      -82.630    -987.445     216.933
  H      -82.172    -985.637     215.333
  H      -80.779    -987.888     213.722
  H      -78.567    -983.527     220.729
  H      -81.242    -985.852     212.356
  H      -80.268    -983.356     221.111
  H      -80.435    -984.875     213.609
  P      -84.406    -985.840     214.071
  C      -84.437    -985.591     211.470
  O      -84.091    -985.024     212.726
  O      -83.993    -984.825     215.237
  O      -85.809    -986.328     214.195
  H      -84.539    -984.983     216.036
  H      -84.158    -984.918     210.686
  H      -85.493    -985.762     211.435
  H      -83.921    -986.520     211.343

 6  7  8  9  10  11  12  13  14  15  16  26  30  31  32  33  35 0
 6-311+G(2d,p)
 ****
 37  38 0
 6-311+G(2d,p)
 ****
 1  2  3  4  5  17  18  19  20  21  22  23  24  25 0
 3-21G
 ****
 27  28  29  34  36  39  40  41  42  43  44  45  46 0
 3-21G
 ****


