%nproc=1
%NoSave
%Mem=1900MB
#P OB98/GEN NMR

erre ene a

0 1
  C      144.351     -17.267      27.475
  O      143.833     -18.567      27.272
  H      145.069     -17.301      28.297
  H      143.539     -16.587      27.744
  H      144.860     -16.906      26.576
  P      143.017     -18.817      25.912
  C      141.000     -17.600      27.004
  O      141.850     -17.714      25.872
  C      140.260     -16.267      26.977
  O      141.191     -15.171      27.098
  C      139.464     -16.016      25.700
  O      138.189     -16.642      25.747
  C      139.331     -14.503      25.744
  O      138.311     -14.132      26.697
  C      140.712     -14.078      26.265
  N      142.151     -10.866      22.613
  C      141.038     -10.835      23.432
  N      140.185      -9.805      23.246
  N      140.782     -11.732      24.348
  C      141.710     -12.717      24.405
  C      142.848     -12.861      23.643
  C      143.128     -11.853      22.647
  O      144.105     -11.829      21.902
  N      143.547     -13.988      23.987
  C      142.820     -14.537      24.940
  N      141.694     -13.807      25.228
  O      142.238     -20.185      26.216
  O      143.851     -18.929      24.681
  H      138.220     -13.163      26.654
  H      142.700     -20.917      25.763
  H      142.295     -10.155      21.916
  H      143.068     -15.455      25.457
  H      140.660     -13.183      26.895
  H      139.037     -14.078      24.783
  H      140.310      -9.092      22.545
  H      140.028     -16.310      24.806
  H      139.365      -9.760      23.839
  H      139.601     -16.232      27.855
  H      141.608     -17.662      27.914
  H      140.283     -18.427      26.995
  P      137.693     -17.452      24.454
  C      136.349     -15.460      23.478
  O      137.426     -16.369      23.297
  O      136.221     -17.918      24.877
  O      138.541     -18.612      24.065
  H      136.201     -18.888      24.994
  H      136.291     -14.803      22.635
  H      136.512     -14.887      24.367
  H      135.433     -16.006      23.568

 6  7  8  9  10  11  12  13  14  15  26  29  33  34 0
 6-311+G(2d,p)
 ****
 36  38  39  40  41 0
 6-311+G(2d,p)
 ****
 1  2  3  4  5  16  17  18  19  20  21  22  23  24  25 0
 3-21G
 ****
 27  28  30  31  32  35  37  42  43  44  45  46  47 0
 3-21G
 ****
 48  49 0
 3-21G
 ****


