%nproc=1
%NoSave
%Mem=1900MB
#P OB98/GEN NMR

erre ene a

0 1
  C      -47.756      30.292     -57.267
  O      -48.965      30.636     -56.585
  P      -49.554      32.100     -56.877
  C      -49.002      33.071     -54.534
  O      -48.778      33.141     -55.936
  C      -47.756      33.515     -53.763
  O      -47.532      34.932     -53.854
  C      -47.822      33.195     -52.274
  O      -47.510      31.832     -52.057
  C      -46.778      34.148     -51.709
  O      -45.451      33.592     -51.808
  C      -46.914      35.378     -52.619
  N      -46.731      40.201     -51.063
  C      -45.708      39.354     -51.448
  N      -44.464      39.873     -51.438
  N      -45.891      38.110     -51.806
  C      -47.189      37.726     -51.773
  C      -48.291      38.479     -51.440
  C      -48.075      39.851     -51.038
  O      -48.949      40.648     -50.712
  N      -49.452      37.761     -51.579
  C      -49.037      36.541     -51.874
  N      -47.678      36.481     -52.066
  O      -51.028      32.036     -56.255
  O      -49.585      32.449     -58.329
  H      -45.289      33.314     -52.728
  H      -51.688      32.045     -56.973
  H      -46.532      41.146     -50.789
  H      -49.676      35.681     -51.986
  H      -45.931      35.791     -52.884
  H      -46.945      34.350     -50.648
  H      -44.248      40.821     -51.173
  H      -48.814      33.446     -51.879
  H      -43.700      39.272     -51.721
  H      -46.892      33.005     -54.212
  H      -49.270      32.052     -54.251
  H      -49.862      33.705     -54.284
  P      -48.542      30.954     -51.197
  C      -47.821      31.862     -48.873
  O      -48.843      31.757     -49.843
  O      -47.649      29.711     -50.719
  O      -49.745      30.496     -51.952
  H      -48.161      28.885     -50.828
  H      -47.952      32.797     -48.322
  H      -46.826      31.855     -49.328
  H      -47.904      31.024     -48.175
  H      -47.463      29.300     -56.995
  H      -46.984      30.980     -56.993
  H      -47.917      30.339     -58.324

 3  4  5  6  7  8  9  10  11  12  23  26  30  31 0
 6-311+G(2d,p)
 ****
 33  35  36  37  38 0
 6-311+G(2d,p)
 ****
 1  2  13  14  15  16  17  18  19  20  21  22  24  25 0
 3-21G
 ****
 27  28  29  32  34  39  40  41  42  43  44  45  46  47  48  49 0
 3-21G
 ****


