%nproc=1
%NoSave
%Mem=1900MB
#P OB98/GEN NMR

erre ene a

0 1
  C     -691.118     823.630    -145.052
  O     -690.987     822.686    -146.124
  P     -689.514     822.198    -146.550
  C     -689.607     819.628    -146.379
  O     -689.185     820.839    -145.765
  C     -690.569     818.866    -145.452
  O     -691.761     819.645    -145.162
  C     -691.092     817.569    -146.075
  O     -690.083     816.571    -146.060
  C     -692.300     817.287    -145.206
  O     -691.910     816.628    -143.976
  C     -692.824     818.695    -144.902
  N     -694.010     819.049    -145.671
  C     -695.237     818.575    -145.164
  O     -695.259     817.880    -144.152
  N     -696.392     818.887    -145.835
  C     -696.340     819.601    -146.917
  N     -697.513     819.889    -147.548
  C     -695.066     820.114    -147.488
  C     -693.950     819.780    -146.824
  O     -688.453     823.242    -146.496
  O     -689.743     821.674    -148.054
  H     -692.690     816.609    -143.409
  H     -688.922     821.818    -148.553
  H     -695.077     820.714    -148.394
  H     -692.981     820.114    -147.187
  H     -693.085     818.792    -143.843
  H     -693.011     816.621    -145.706
  H     -691.416     817.764    -147.115
  H     -690.037     818.645    -144.514
  H     -698.355     819.518    -147.128
  H     -688.735     819.015    -146.602
  H     -697.579     820.491    -148.360
  H     -690.090     819.867    -147.332
  P     -689.286     816.293    -147.436
  C     -686.802     816.732    -146.840
  O     -687.998     817.208    -147.463
  O     -690.248     816.958    -148.553
  O     -689.066     814.845    -147.743
  H     -690.195     816.444    -149.367
  H     -685.958     817.313    -147.214
  H     -686.640     815.661    -147.079
  H     -686.879     816.848    -145.764
  H     -692.153     823.849    -144.894
  H     -690.597     824.530    -145.304
  H     -690.701     823.215    -144.158

 3  4  5  6  7  8  9  10  11  12  13  23  27  28  29  30  32 0
 6-311+G(2d,p)
 ****
 34  35 0
 6-311+G(2d,p)
 ****
 1  2  14  15  16  17  18  19  20  21  22  24  25  26 0
 3-21G
 ****
 31  33  36  37  38  39  40  41  42  43  44  45  46 0
 3-21G
 ****


