%nproc=1
%NoSave
%Mem=1900MB
#P OB98/GEN NMR

erre ene a

0 1
  C       73.896      21.417      15.889
  O       72.787      21.411      14.991
  P       72.828      22.356      13.695
  C       71.008      20.799      12.766
  O       71.479      22.136      12.852
  C       70.091      20.424      13.939
  O       68.931      21.297      13.988
  C       69.573      18.980      13.897
  O       69.499      18.523      15.253
  C       68.185      19.152      13.313
  O       67.350      18.030      13.556
  C       67.760      20.457      13.990
  N       66.639      21.095      13.319
  C       65.522      21.405      14.096
  O       65.472      21.046      15.273
  N       64.482      22.085      13.510
  C       64.497      22.295      12.230
  N       63.458      22.989      11.690
  C       65.579      21.820      11.348
  C       66.618      21.258      11.957
  O       74.087      22.293      12.897
  O       72.617      23.820      14.317
  H       67.669      17.273      13.020
  H       73.135      24.462      13.793
  H       65.508      21.947      10.278
  H       67.463      20.884      11.399
  H       67.486      20.281      15.038
  H       68.258      19.289      12.227
  H       70.214      18.304      13.325
  H       70.654      20.583      14.868
  H       62.711      23.287      12.304
  H       71.864      20.119      12.749
  H       63.422      23.239      10.710
  H       70.494      20.663      11.807
  P       70.498      17.363      15.735
  C       71.421      18.376      17.943
  O       70.582      17.418      17.334
  O       71.926      17.963      15.307
  O       70.300      16.021      15.110
  H       72.553      17.227      15.182
  H       71.146      18.461      18.998
  H       71.308      19.358      17.477
  H       72.463      18.053      17.876
  H       73.708      20.736      16.693
  H       74.032      22.403      16.281
  H       74.780      21.116      15.366

 3  4  5  6  7  8  9  10  11  12  13  23  27  28  29  30  32 0
 6-311+G(2d,p)
 ****
 34  35 0
 6-311+G(2d,p)
 ****
 1  2  14  15  16  17  18  19  20  21  22  24  25  26 0
 3-21G
 ****
 31  33  36  37  38  39  40  41  42  43  44  45  46 0
 3-21G
 ****


