%nproc=1
%NoSave
%Mem=1900MB
#P OB98/GEN NMR

erre ene a

0 1
  C      148.783     125.459    -110.455
  O      149.915     126.297    -110.701
  P      151.358     125.605    -110.604
  C      153.147     124.731    -112.271
  O      151.817     125.195    -112.083
  C      153.281     124.052    -113.634
  O      152.528     122.822    -113.697
  C      152.757     124.900    -114.788
  O      153.659     125.946    -115.101
  C      152.604     123.844    -115.875
  O      153.879     123.554    -116.475
  C      152.120     122.625    -115.073
  N      148.330     120.053    -117.351
  C      149.670     120.020    -117.518
  N      150.613     120.741    -116.874
  C      150.051     121.551    -115.963
  C      148.701     121.692    -115.680
  C      147.816     120.897    -116.424
  N      146.450     120.942    -116.266
  N      148.507     122.629    -114.683
  C      149.717     123.063    -114.390
  N      150.683     122.434    -115.129
  O      151.049     124.204    -109.895
  O      152.355     126.407    -109.832
  H      154.229     124.394    -116.834
  H      151.389     124.211    -108.981
  H      150.034     119.326    -118.271
  H      149.940     123.829    -113.656
  H      152.583     121.690    -115.417
  H      151.927     124.149    -116.679
  H      151.774     125.320    -114.532
  H      154.341     123.820    -113.797
  H      153.420     124.026    -111.480
  H      145.882     120.397    -116.896
  H      146.051     121.628    -115.641
  H      153.833     125.581    -112.185
  P      153.373     127.396    -114.475
  C      152.901     128.209    -112.081
  O      153.304     127.116    -112.891
  O      151.838     127.615    -114.860
  O      154.316     128.466    -114.903
  H      151.302     126.821    -114.679
  H      152.862     127.872    -111.042
  H      151.909     128.556    -112.382
  H      153.624     129.020    -112.167
  H      147.886     126.035    -110.549
  H      148.846     125.056    -109.466
  H      148.770     124.659    -111.166

 3  4  5  6  7  8  9  10  11  12  22  25  29  30  31  32 0
 6-311+G(2d,p)
 ****
 33  36  37 0
 6-311+G(2d,p)
 ****
 1  2  13  14  15  16  17  18  19  20  21  23  24  26 0
 3-21G
 ****
 27  28  34  35  38  39  40  41  42  43  44  45  46  47  48 0
 3-21G
 ****


