%nproc=1
%NoSave
%Mem=1900MB
#P OB98/GEN NMR

erre ene a

0 1
  C     -750.325    -371.105     267.398
  O     -749.098    -371.601     267.955
  P     -747.747    -371.144     267.203
  C     -746.217    -372.099     265.316
  O     -747.346    -372.313     266.163
  C     -746.383    -372.780     263.959
  O     -746.419    -374.218     264.155
  C     -747.653    -372.410     263.186
  O     -747.347    -372.344     261.788
  C     -748.563    -373.592     263.405
  O     -749.563    -373.700     262.392
  C     -747.541    -374.729     263.417
  N     -750.133    -379.015     262.618
  C     -749.705    -378.054     261.716
  N     -750.034    -378.258     260.422
  N     -749.016    -376.994     262.051
  C     -748.731    -376.941     263.377
  C     -749.079    -377.822     264.370
  C     -749.878    -378.971     263.991
  O     -750.335    -379.826     264.755
  N     -748.601    -377.423     265.598
  C     -747.962    -376.293     265.348
  N     -748.021    -375.954     264.013
  O     -746.638    -371.251     268.350
  O     -747.816    -369.774     266.618
  H     -750.155    -372.931     262.487
  H     -746.190    -370.398     268.452
  H     -750.679    -379.800     262.317
  H     -747.478    -375.673     266.083
  H     -747.197    -374.959     262.396
  H     -749.072    -373.502     264.382
  H     -750.511    -379.089     260.092
  H     -748.117    -371.458     263.503
  H     -749.702    -377.589     259.732
  H     -745.488    -372.561     263.358
  H     -745.318    -372.472     265.814
  H     -746.087    -371.013     265.180
  P     -747.855    -371.037     260.997
  C     -749.851    -370.575     259.393
  O     -749.249    -371.455     260.328
  O     -746.854    -370.955     259.751
  O     -747.858    -369.788     261.817
  H     -746.773    -370.032     259.440
  H     -749.183    -369.781     259.083
  H     -750.747    -370.134     259.853
  H     -750.160    -371.152     258.520
  H     -751.151    -371.469     267.973
  H     -750.419    -371.441     266.387
  H     -750.320    -370.035     267.419

 3  4  5  6  7  8  9  10  11  12  23  26  30  31  33  0
 6-311+G(2d,p)
 ****
 35  36  37  38 0
 6-311+G(2d,p)
 ****
 1  2  13  14  15  16  17  18  19  20  21  22  24  25  27  28  29 0
 3-21G
 ****
 32  34  39  40  41  42  43  44  45  46  47  48  49 0
 3-21G
 ****


