%nproc=1
%NoSave
%Mem=1900MB
#P OB98/GEN NMR

erre ene a

0 1
  C       77.571    -194.201      89.317
  O       78.211    -195.313      88.688
  P       77.351    -196.568      88.175
  C       78.682    -196.564      85.989
  O       78.197    -197.363      87.063
  C       80.108    -196.045      86.212
  O       80.998    -197.120      86.601
  C       80.739    -195.358      84.997
  O       81.584    -194.329      85.524
  C       81.564    -196.474      84.386
  O       82.570    -195.994      83.504
  C       82.072    -197.185      85.647
  N       82.482    -198.560      85.381
  C       83.685    -198.741      84.699
  O       84.323    -197.768      84.296
  N       84.115    -200.020      84.442
  C       83.358    -201.025      84.755
  N       83.826    -202.268      84.454
  C       82.039    -200.877      85.399
  C       81.674    -199.630      85.690
  O       75.950    -196.243      87.773
  O       77.357    -197.572      89.425
  H       82.147    -195.391      82.856
  H       76.534    -198.095      89.422
  H       81.431    -201.742      85.618
  H       80.727    -199.416      86.169
  H       82.928    -196.646      86.074
  H       80.911    -197.143      83.812
  H       80.006    -194.942      84.302
  H       80.072    -195.345      87.056
  H       84.723    -202.325      83.988
  H       78.007    -195.711      85.860
  H       83.271    -203.105      84.549
  H       78.640    -197.149      85.065
  P       81.272    -192.776      85.302
  C       82.207    -191.683      87.417
  O       82.428    -191.958      86.047
  O       79.883    -192.357      85.662
  O       81.574    -192.512      83.749
  H       81.148    -191.680      83.475
  H       83.136    -191.320      87.862
  H       81.887    -192.585      87.949
  H       81.438    -190.911      87.519
  H       78.306    -193.472      89.586
  H       77.061    -194.534      90.197
  H       76.867    -193.765      88.640

 3  4  5  6  7  8  9  10  11  12  13  23  27  28  29  30  32 0
 6-311+G(2d,p)
 ****
 34  35 0
 6-311+G(2d,p)
 ****
 1  2  14  15  16  17  18  19  20  21  22  24  25  26 0
 3-21G
 ****
 31  33  36  37  38  39  40  41  42  43  44  45  46 0
 3-21G
 ****


