%nproc=1
%NoSave
%Mem=1900MB
#P OB98/GEN NMR

erre ene a

0 1
  C      247.265     401.353     955.413
  O      247.867     402.612     955.657
  H      246.420     401.497     954.740
  H      246.901     400.915     956.347
  H      247.989     400.680     954.944
  P      249.112     402.629     956.662
  C      250.990     403.309     955.027
  O      250.102     403.737     956.056
  C      251.244     404.435     954.022
  O      250.178     404.433     953.038
  C      251.269     405.829     954.680
  O      252.280     406.623     954.037
  C      249.897     406.403     954.357
  O      249.892     407.827     954.346
  C      249.602     405.751     953.002
  N      245.568     408.238     951.090
  C      246.890     408.518     951.073
  N      247.901     407.789     951.596
  C      247.436     406.638     952.141
  C      246.117     406.239     952.234
  C      245.156     407.099     951.683
  N      243.804     406.842     951.713
  N      246.039     405.022     952.904
  C      247.291     404.710     953.197
  N      248.166     405.672     952.763
  O      249.743     401.302     956.943
  O      248.499     403.381     957.939
  H      248.954     408.120     954.273
  H      247.967     404.154     957.669
  H      247.181     409.442     950.587
  H      247.605     403.805     953.717
  H      250.037     406.311     952.165
  H      249.180     406.060     955.121
  H      251.462     405.781     955.756
  H      252.174     404.228     953.486
  H      250.559     402.440     954.500
  H      243.184     407.497     951.280
  H      243.474     405.982     952.133
  H      251.924     402.991     955.497
  P      252.981     407.788     954.893
  C      255.324     406.738     955.238
  O      254.564     407.764     954.584
  O      252.603     407.857     956.338
  O      252.512     409.118     954.107
  H      252.353     409.821     954.771
  H      256.353     406.823     954.958
  H      254.953     405.778     954.946
  H      255.233     406.848     956.298

 6  7  8  9  10  11  12  13  14  15  25  28  32  33  34  35 0
 6-311+G(2d,p)
 ****
 36  39  40 0
 6-311+G(2d,p)
 ****
 1  2  3  4  5  16  17  18  19  20  21  22  23  24 0
 3-21G
 ****
 26  27  29  30  31  37  38  41  42  43  44  45  46  47 0
 3-21G
 ****
 48 0
 3-21G
 ****


