%nproc=1
%NoSave
%Mem=1900MB
#P OB98/GEN NMR

erre ene a

0 1
  C      275.455     410.961    -376.502
  O      275.863     412.136    -377.204
  P      274.830     413.361    -377.365
  C      275.327     414.923    -375.362
  O      274.468     413.931    -375.915
  C      274.652     416.303    -375.452
  O      273.519     416.401    -374.543
  C      275.587     417.446    -375.032
  O      276.661     417.726    -375.904
  C      274.604     418.560    -374.734
  O      274.226     419.249    -375.930
  C      273.413     417.784    -374.143
  N      273.323     417.915    -372.682
  C      272.591     418.980    -372.195
  O      272.056     419.813    -372.923
  N      272.501     419.076    -370.832
  C      273.109     418.245    -369.919
  O      273.023     418.394    -368.710
  C      273.901     417.144    -370.499
  C      273.984     417.028    -371.825
  O      273.674     413.113    -378.280
  O      275.768     414.525    -377.965
  H      275.037     419.588    -376.350
  H      275.261     414.995    -378.661
  H      271.969     419.843    -370.455
  H      274.405     416.474    -369.816
  H      274.562     416.227    -372.276
  H      272.466     418.154    -374.555
  H      275.049     419.308    -374.061
  H      276.050     417.152    -374.080
  H      274.277     416.451    -376.470
  H      276.273     414.927    -375.895
  H      275.548     414.661    -374.330
  P      278.090     418.254    -375.396
  C      278.518     416.337    -373.698
  O      278.319     417.724    -373.900
  O      278.432     419.692    -375.658
  O      279.091     417.326    -376.233
  H      279.904     417.846    -376.427
  H      278.636     416.150    -372.628
  H      279.406     415.993    -374.221
  H      277.647     415.775    -374.051
  H      276.259     410.255    -376.491
  H      274.608     410.529    -376.992
  H      275.193     411.219    -375.497

 3  4  5  6  7  8  9  10  11  12  13  23  28  29  30  31  32 0
 6-311+G(2d,p)
 ****
 33  34 0
 6-311+G(2d,p)
 ****
 1  2  14  15  16  17  18  19  20  21  22  24  25  26  27 0
 3-21G
 ****
 35  36  37  38  39  40  41  42  43  44  45 0
 3-21G
 ****


