%nproc=1
%NoSave
%Mem=1900MB
#P OB98/GEN NMR

erre ene a

0 1
  C      530.160    -846.527      -9.787
  O      529.914    -847.939      -9.716
  P      530.052    -848.919     -10.985
  C      531.395    -850.808      -9.827
  O      530.159    -850.429     -10.453
  C      531.168    -851.947      -8.842
  O      530.564    -851.455      -7.614
  C      530.222    -853.044      -9.307
  O      530.801    -853.882     -10.303
  C      529.914    -853.758      -7.998
  O      530.918    -854.725      -7.666
  C      529.949    -852.602      -6.974
  N      528.635    -852.250      -6.456
  C      528.115    -853.093      -5.453
  O      528.723    -854.095      -5.109
  N      526.916    -852.770      -4.884
  C      526.229    -851.759      -5.352
  N      525.047    -851.470      -4.743
  C      526.672    -850.938      -6.506
  C      527.869    -851.220      -6.993
  O      531.136    -848.532     -11.936
  O      528.610    -848.868     -11.707
  H      528.729    -849.083     -12.654
  H      530.578    -855.235      -6.912
  H      526.049    -850.131      -6.875
  H      528.294    -850.671      -7.820
  H      530.613    -852.850      -6.130
  H      528.947    -854.290      -8.028
  H      529.308    -852.585      -9.697
  H      532.143    -852.383      -8.583
  H      524.772    -852.045      -3.955
  H      531.799    -849.939      -9.290
  H      524.450    -850.697      -5.012
  H      532.116    -851.086     -10.601
  P      529.796    -854.590     -11.324
  C      530.544    -853.079     -13.317
  O      530.395    -854.382     -12.813
  O      528.509    -853.644     -11.315
  O      529.439    -856.003     -10.978
  H      527.699    -854.183     -11.351
  H      531.346    -853.074     -14.053
  H      530.771    -852.360     -12.515
  H      529.613    -852.774     -13.814
  H      530.005    -846.089      -8.823
  H      529.489    -846.083     -10.492
  H      531.169    -846.356     -10.099

 3  4  5  6  7  8  9  10  11  12  13  24  27  28  29  30  32 0
 6-311+G(2d,p)
 ****
 34  35 0
 6-311+G(2d,p)
 ****
 1  2  14  15  16  17  18  19  20  21  22  23  25  26 0
 3-21G
 ****
 31  33  36  37  38  39  40  41  42  43  44  45  46 0
 3-21G
 ****


