%nproc=1
%NoSave
%Mem=1900MB
#P OB98/GEN NMR

erre ene a

0 1
  C      854.564    -890.730    -232.685
  O      853.183    -890.720    -232.987
  H      854.966    -889.710    -232.797
  H      855.104    -891.400    -233.352
  H      854.712    -891.040    -231.641
  P      852.396    -892.110    -233.007
  C      850.923    -891.430    -230.995
  O      851.915    -892.310    -231.489
  C      849.956    -892.190    -230.076
  O      849.209    -893.170    -230.811
  C      850.635    -892.970    -228.948
  O      851.120    -892.150    -227.900
  C      849.472    -893.840    -228.512
  O      848.545    -893.070    -227.724
  C      848.866    -894.240    -229.885
  N      849.326    -895.520    -230.365
  C      848.922    -896.650    -229.639
  O      848.215    -896.540    -228.653
  N      849.367    -897.890    -230.042
  C      850.154    -897.990    -231.071
  N      850.596    -899.240    -231.400
  C      850.587    -896.840    -231.882
  C      850.144    -895.650    -231.466
  O      853.116    -893.270    -233.617
  O      851.015    -891.780    -233.740
  H      849.059    -892.610    -227.048
  H      850.485    -892.600    -233.779
  H      851.249    -896.970    -232.700
  H      850.436    -894.750    -232.001
  H      847.771    -894.260    -229.810
  H      849.789    -894.690    -227.896
  H      851.428    -893.610    -229.331
  H      849.235    -891.450    -229.668
  H      850.305    -900.000    -230.800
  H      850.401    -890.990    -231.845
  H      851.407    -899.360    -231.993
  H      851.397    -890.630    -230.417
  P      852.501    -892.560    -227.181
  C      854.182    -891.180    -228.600
  O      853.665    -892.460    -228.291
  O      852.318    -894.150    -226.990
  O      852.812    -891.850    -225.895
  H      851.972    -894.350    -226.099
  H      854.942    -891.273    -229.348
  H      854.601    -890.742    -227.718
  H      853.394    -890.556    -228.968

 6  7  8  9  10  11  12  13  14  15  16  26  30  31  32  33  35 0
 6-311+G(2d,p)
 ****
 37  38 0
 6-311+G(2d,p)
 ****
 1  2  3  4  5  17  18  19  20  21  22  23  24  25 0
 3-21G
 ****
 27  28  29  34  36  39  40  41  42  43  44  45  46 0
 3-21G
 ****


