%nproc=1
%NoSave
%Mem=1900MB
#P OB98/GEN NMR

erre ene a

0 1
  C     -510.793     150.178     334.608
  O     -510.892     149.071     333.711
  P     -509.808     148.907     332.543
  C     -509.838     146.327     332.427
  O     -510.099     147.547     331.735
  C     -510.350     145.122     331.620
  O     -511.812     145.155     331.548
  C     -509.816     145.085     330.176
  O     -509.243     143.824     329.818
  C     -511.003     145.535     329.340
  O     -510.935     145.090     327.998
  C     -512.204     145.052     330.165
  N     -513.426     145.815     329.873
  C     -514.349     145.213     329.035
  O     -514.160     144.137     328.473
  N     -515.485     145.931     328.790
  C     -515.753     147.194     329.233
  O     -516.769     147.815     328.947
  C     -514.703     147.810     330.074
  C     -513.607     147.093     330.351
  O     -508.380     149.101     332.950
  O     -510.244     150.034     331.476
  H     -511.752     145.377     327.529
  H     -509.432     150.430     331.107
  H     -516.187     145.506     328.186
  H     -514.872     148.817     330.433
  H     -512.820     147.523     330.963
  H     -512.430     143.998     329.955
  H     -511.022     146.632     329.313
  H     -508.987     145.795     330.045
  H     -510.061     144.213     332.158
  H     -510.346     146.339     333.395
  H     -508.773     146.246     332.627
  P     -507.687     143.497     329.820
  C     -507.665     141.228     331.076
  O     -507.502     141.903     329.844
  O     -506.861     144.239     330.834
  O     -507.227     143.895     328.339
  H     -506.365     144.333     328.379
  H     -507.155     140.264     331.025
  H     -508.733     141.052     331.255
  H     -507.241     141.806     331.918
  H     -511.591     150.133     335.319
  H     -510.859     151.092     334.055
  H     -509.855     150.138     335.121

 3  4  5  6  7  8  9  10  11  12  13  23  28  29  30  31  32 0
 6-311+G(2d,p)
 ****
 33  34 0
 6-311+G(2d,p)
 ****
 1  2  14  15  16  17  18  19  20  21  22  24  25  26  27 0
 3-21G
 ****
 35  36  37  38  39  40  41  42  43  44  45 0
 3-21G
 ****


