%nproc=1
%NoSave
%Mem=1900MB
#P OB98/GEN NMR

erre ene a

0 1
  C      -37.163      16.308       4.832
  O      -37.416      15.192       5.655
  H      -36.536      15.991       3.996
  H      -36.626      17.070       5.404
  H      -38.089      16.732       4.435
  P      -38.648      15.249       6.672
  C      -38.120      15.545       9.181
  O      -38.230      16.179       7.913
  C      -36.668      15.207       9.519
  O      -35.810      16.299       9.124
  C      -36.449      14.993      11.019
  O      -36.693      13.671      11.467
  C      -34.976      15.363      11.178
  O      -34.126      14.226      10.956
  C      -34.756      16.419      10.089
  N      -32.063      19.985      12.572
  C      -31.778      18.642      12.407
  N      -30.655      18.198      13.011
  N      -32.537      17.824      11.727
  C      -33.674      18.393      11.267
  C      -34.074      19.705      11.386
  C      -33.191      20.621      12.076
  O      -33.390      21.820      12.235
  N      -35.312      19.909      10.825
  C      -35.693      18.704      10.449
  N      -34.701      17.768      10.622
  O      -38.658      13.785       7.328
  O      -39.979      15.560       6.057
  H      -34.471      13.737      10.184
  H      -39.572      13.535       7.554
  H      -31.427      20.571      13.081
  H      -36.652      18.463      10.005
  H      -33.813      16.250       9.554
  H      -34.771      15.716      12.191
  H      -30.082      18.762      13.615
  H      -37.043      15.703      11.602
  H      -30.511      17.188      13.074
  H      -36.357      14.329       8.939
  H      -38.713      14.632       9.124
  H      -38.558      16.175       9.960
  P      -36.917      13.358      13.017
  C      -34.902      12.253      14.287
  O      -35.502      13.412      13.752
  O      -37.277      11.799      13.022
  O      -37.966      14.177      13.693
  H      -38.241      11.669      13.079
  H      -33.964      12.510      14.732
  H      -34.742      11.541      13.505
  H      -35.545      11.829      15.030

 6  7  8  9  10  11  12  13  14  15  26  29  33  34 0
 6-311+G(2d,p)
 ****
 36  38  39  40  41 0
 6-311+G(2d,p)
 ****
 1  2  3  4  5  16  17  18  19  20  21  22  23  24  25 0
 3-21G
 ****
 27  28  30  31  32  35  37  42  43  44  45  46  47 0
 3-21G
 ****
 48  49 0
 3-21G
 ****


