%nproc=1
%NoSave
%Mem=1900MB
#P OB98/GEN NMR

erre ene a

0 1
  C     -291.200    -303.118     592.326
  O     -290.372    -304.267     592.261
  H     -290.792    -302.437     593.080
  H     -292.213    -303.401     592.624
  H     -291.221    -302.606     591.361
  P     -290.792    -305.390     591.193
  C     -291.207    -307.020     593.178
  O     -290.576    -306.805     591.920
  C     -290.693    -308.314     593.798
  O     -291.217    -309.443     593.061
  C     -289.183    -308.469     593.748
  O     -288.524    -307.714     594.755
  C     -289.030    -309.977     593.924
  O     -289.079    -310.351     595.308
  C     -290.256    -310.516     593.176
  N     -289.235    -314.728     590.467
  C     -289.633    -314.552     591.742
  N     -289.895    -313.395     592.393
  C     -289.741    -312.346     591.557
  C     -289.344    -312.370     590.236
  C     -289.085    -313.638     589.675
  N     -288.656    -313.821     588.381
  N     -289.253    -311.084     589.729
  C     -289.603    -310.302     590.722
  N     -289.910    -311.018     591.854
  O     -289.608    -305.330     590.117
  O     -292.130    -305.194     590.558
  H     -288.338    -309.893     595.740
  H     -289.895    -304.812     589.344
  H     -289.744    -315.461     592.333
  H     -289.641    -309.224     590.689
  H     -290.739    -311.339     593.714
  H     -288.079    -310.318     593.517
  H     -288.802    -308.189     592.753
  H     -291.059    -308.382     594.836
  H     -292.294    -307.083     593.043
  H     -290.984    -306.166     593.833
  H     -288.429    -314.746     588.074
  H     -288.440    -313.002     587.821
  P     -287.799    -306.356     594.324
  C     -285.654    -307.232     595.528
  O     -286.556    -306.154     595.313
  O     -288.828    -305.210     594.764
  O     -287.465    -306.269     592.877
  H     -288.809    -304.476     594.120
  H     -284.889    -306.926     596.211
  H     -285.209    -307.515     594.597
  H     -286.185    -308.066     595.937

 6  7  8  9  10  11  12  13  14  15  25  28  32  33  34  35 0
 6-311+G(2d,p)
 ****
 36  37  40 0
 6-311+G(2d,p)
 ****
 1  2  3  4  5  16  17  18  19  20  21  22  23  24 0
 3-21G
 ****
 26  27  29  30  31  38  39 41  42  43  44  45  46  47  48 0
 3-21G
 ****


