%nproc=1
%NoSave
%Mem=1900MB
#P OB98/GEN NMR

erre ene a

0 1
  C     -128.761      44.917     183.256
  O     -127.558      44.495     183.912
  P     -127.572      44.541     185.514
  C     -125.143      45.432     185.717
  O     -126.059      44.389     186.025
  C     -123.833      45.251     186.496
  O     -124.018      45.379     187.923
  C     -123.194      43.881     186.289
  O     -122.497      43.860     185.047
  C     -122.268      43.781     187.491
  O     -121.015      44.448     187.248
  C     -123.068      44.513     188.586
  N     -122.719      41.925     192.936
  C     -121.744      42.589     192.218
  N     -120.498      42.576     192.743
  N     -121.966      43.201     191.085
  C     -123.254      43.129     190.674
  C     -124.316      42.530     191.314
  C     -124.060      41.849     192.563
  O     -124.897      41.273     193.249
  N     -125.491      42.719     190.626
  C     -125.106      43.320     189.511
  N     -123.773      43.653     189.524
  O     -128.266      43.157     185.918
  O     -128.325      45.711     186.069
  H     -120.468      44.400     188.055
  H     -129.149      43.320     186.290
  H     -122.497      41.463     193.801
  H     -125.758      43.568     188.685
  H     -122.414      45.156     189.194
  H     -122.024      42.743     187.730
  H     -120.256      42.123     193.616
  H     -123.959      43.093     186.330
  H     -119.767      43.065     192.242
  H     -123.145      46.036     186.167
  H     -125.584      46.402     185.965
  H     -124.960      45.435     184.645
  P     -123.341      43.562     183.722
  C     -121.284      42.246     182.832
  O     -122.304      43.194     182.558
  O     -123.890      45.005     183.307
  O     -124.467      42.588     183.902
  H     -124.834      44.941     183.049
  H     -121.026      41.732     181.904
  H     -121.607      41.512     183.571
  H     -120.399      42.774     183.206
  H     -128.634      44.844     182.196
  H     -128.974      45.932     183.520
  H     -129.573      44.291     183.562

 3  4  5  6  7  8  9  10  11  12  23  26  30  31 0
 6-311+G(2d,p)
 ****
 33  35  36  37  38 0
 6-311+G(2d,p)
 ****
 1  2  13  14  15  16  17  18  19  20  21  22  24  25 0
 3-21G
 ****
 27  28  29  32  34  39  40  41  42  43  44  45  46  47  48  49 0
 3-21G
 ****


