%nproc=1
%NoSave
%Mem=1900MB
#P OB98/GEN NMR

erre ene a

0 1
  C      305.302    -103.882     153.347
  O      305.906    -103.228     152.248
  H      304.578    -104.606     152.967
  H      304.782    -103.168     153.990
  H      306.062    -104.419     153.926
  P      306.819    -101.941     152.546
  C      304.675    -100.521     152.293
  O      305.811    -100.818     153.103
  C      303.420    -100.345     153.155
  O      303.103    -101.578     153.828
  C      303.577     -99.313     154.260
  O      303.674     -97.981     153.800
  C      302.465     -99.698     155.227
  O      301.206     -99.117     154.902
  C      302.397    -101.233     155.040
  N      302.921    -101.949     156.196
  C      302.226    -101.764     157.388
  O      301.238    -101.033     157.493
  N      302.724    -102.419     158.478
  C      303.854    -103.183     158.503
  O      304.276    -103.711     159.522
  C      304.564    -103.321     157.218
  C      304.070    -102.707     156.139
  O      307.677    -101.472     151.407
  O      307.652    -102.358     153.846
  H      300.992     -99.385     153.987
  H      308.431    -101.767     153.975
  H      302.228    -102.306     159.348
  H      305.467    -103.917     157.201
  H      304.578    -102.791     155.182
  H      301.357    -101.551     154.891
  H      302.704     -99.396     156.252
  H      304.518     -99.519     154.782
  H      302.582    -100.093     152.494
  H      304.526    -101.365     151.608
  H      304.865     -99.617     151.707
  P      304.896     -97.019     154.154
  C      303.346     -95.242     155.253
  O      304.471     -96.105     155.407
  O      305.598     -96.372     153.002
  O      305.933     -98.054     154.828
  H      306.834     -97.765     154.593
  H      303.185     -94.701     156.162
  H      302.478     -95.825     155.026
  H      303.532     -94.553     154.456

 6  7  8  9  10  11  12  13  14  15  16  26  31  32  33  34  35 0
 6-311+G(2d,p)
 ****
 36  37 0
 6-311+G(2d,p)
 ****
 1  2  3  4  5  17  18  19  20  21  22  23  24  25 0
 3-21G
 ****
 27  28  29  30  38  39  40  41  42  43  44  45 0
 3-21G
 ****


