%nproc=1
%NoSave
%Mem=1900MB
#P OB98/GEN NMR

erre ene a

0 1
  C      -48.375     249.982     430.968
  O      -49.034     249.096     431.885
  P      -48.695     247.533     431.809
  C      -49.110     247.250     434.362
  O      -49.392     246.791     433.053
  C      -49.811     246.364     435.406
  O      -51.204     246.714     435.546
  C      -49.793     244.889     435.051
  O      -48.561     244.265     435.417
  C      -50.928     244.366     435.936
  O      -50.452     244.192     437.286
  C      -51.941     245.523     435.877
  N      -56.156     242.862     434.647
  C      -55.334     242.793     435.717
  N      -54.223     243.519     435.952
  C      -54.005     244.403     434.969
  C      -54.757     244.594     433.819
  C      -55.894     243.765     433.675
  N      -56.737     243.839     432.588
  N      -54.220     245.593     433.032
  C      -53.157     246.002     433.701
  N      -52.981     245.316     434.866
  O      -47.136     247.483     432.182
  O      -48.954     246.921     430.467
  H      -50.421     245.089     437.689
  H      -46.696     246.765     431.682
  H      -55.586     242.059     436.469
  H      -52.500     246.803     433.372
  H      -52.444     245.679     436.834
  H      -51.302     243.394     435.610
  H      -50.050     244.730     433.991
  H      -49.309     246.523     436.379
  H      -49.432     248.289     434.487
  H      -57.549     243.237     432.565
  H      -56.546     244.530     431.873
  H      -48.020     247.248     434.519
  P      -47.649     243.702     434.236
  C      -45.703     244.208     435.877
  O      -46.244     243.334     434.893
  O      -47.342     245.004     433.355
  O      -48.301     242.627     433.422
  H      -47.227     244.754     432.416
  H      -44.925     243.671     436.435
  H      -46.467     244.567     436.565
  H      -45.240     245.070     435.360
  H      -48.704     250.985     431.142
  H      -48.613     249.698     429.964
  H      -47.317     249.923     431.114

 3  4  5  6  7  8  9  10  11  12  22  25  29  30  31  32 0
 6-311+G(2d,p)
 ****
 33  36  37 0
 6-311+G(2d,p)
 ****
 1  2  13  14  15  16  17  18  19  20  21  23  24  26 0
 3-21G
 ****
 27  28  34  35  38  39  40  41  42  43  44  45  46  47  48 0
 3-21G
 ****


