%nproc=1
%NoSave
%Mem=1900MB
#P OB98/GEN NMR

erre ene a

0 1
  C      168.911    -873.390     -17.349
  O      167.651    -873.451     -17.985
  H      168.783    -873.213     -16.277
  H      169.420    -874.352     -17.483
  H      169.524    -872.603     -17.792
  P      166.737    -872.129     -17.876
  C      166.496    -872.027     -20.455
  O      165.828    -872.079     -19.206
  C      165.598    -871.420     -21.513
  O      164.556    -872.383     -21.848
  C      164.902    -870.107     -21.084
  O      165.085    -869.084     -22.075
  C      163.425    -870.471     -21.013
  O      162.575    -869.396     -21.385
  C      163.329    -871.641     -21.975
  N      158.232    -871.774     -21.766
  C      159.081    -870.965     -22.424
  N      160.423    -871.028     -22.524
  C      160.875    -872.109     -21.864
  C      160.149    -873.048     -21.155
  C      158.751    -872.835     -21.099
  N      157.911    -873.639     -20.366
  N      160.971    -874.013     -20.587
  C      162.181    -873.641     -20.918
  N      162.191    -872.493     -21.677
  O      167.791    -870.940     -18.097
  O      166.010    -871.984     -16.590
  H      162.879    -868.597     -20.904
  H      167.802    -870.382     -17.294
  H      158.619    -870.123     -22.950
  H      163.101    -874.125     -20.613
  H      163.251    -871.309     -23.015
  H      163.169    -870.776     -19.984
  H      165.273    -869.747     -20.109
  H      166.178    -871.251     -22.431
  H      166.777    -873.048     -20.761
  H      156.936    -873.343     -20.289
  H      158.286    -874.357     -19.779
  H      167.417    -871.436     -20.343
  P      165.950    -867.807     -21.625
  C      167.383    -867.807     -23.796
  O      166.478    -867.088     -22.954
  O      167.261    -868.470     -20.986
  O      165.253    -866.910     -20.638
  H      167.387    -868.146     -20.066
  H      167.645    -867.201     -24.638
  H      166.915    -868.707     -24.136
  H      168.267    -868.051     -23.244

 6  7  8  9  10  11  12  13  14  15  25  28  32  33  34  35 0
 6-311+G(2d,p)
 ****
 36  39  40 0
 6-311+G(2d,p)
 ****
 1  2  3  4  5  16  17  18  19  20  21  22  23  24 0
 3-21G
 ****
 26  27  29  30  31  37  38  41  42  43  44  45  46  47  48 0
 3-21G
 ****


