%nproc=1
%NoSave
%Mem=1900MB
#P OB98/GEN NMR

erre ene a

0 1
  C      758.484    -519.927    -120.315
  O      757.988    -520.968    -119.486
  P      759.040    -521.978    -118.818
  C      758.843    -521.127    -116.317
  O      759.625    -521.346    -117.472
  C      759.679    -520.379    -115.273
  O      759.789    -518.979    -115.630
  C      759.089    -520.433    -113.869
  O      759.505    -521.597    -113.167
  C      759.605    -519.146    -113.254
  O      760.981    -519.292    -112.863
  C      759.472    -518.172    -114.454
  N      758.175    -517.504    -114.667
  C      758.008    -516.176    -114.283
  O      758.881    -515.497    -113.746
  N      756.784    -515.630    -114.540
  C      755.785    -516.186    -115.278
  O      754.721    -515.621    -115.522
  C      756.064    -517.533    -115.795
  C      757.221    -518.120    -115.465
  O      760.282    -521.960    -119.820
  O      758.519    -523.364    -118.605
  H      761.023    -520.033    -112.240
  H      760.405    -522.830    -120.234
  H      756.612    -514.695    -114.206
  H      755.324    -517.997    -116.424
  H      757.440    -519.116    -115.838
  H      760.232    -517.382    -114.389
  H      759.057    -518.895    -112.351
  H      757.999    -520.379    -113.916
  H      760.691    -520.797    -115.271
  H      758.493    -522.074    -115.902
  H      757.952    -520.545    -116.580
  P      758.492    -522.826    -113.006
  C      759.922    -524.214    -114.628
  O      758.639    -523.681    -114.362
  O      757.099    -522.486    -112.611
  O      759.221    -523.767    -111.929
  H      758.865    -523.597    -111.027
  H      759.848    -524.897    -115.480
  H      760.290    -524.770    -113.759
  H      760.614    -523.411    -114.883
  H      757.666    -519.343    -120.682
  H      759.018    -520.351    -121.139
  H      759.142    -519.302    -119.748

 3  4  5  6  7  8  9  10  11  12  13  23  28  29  30  31  32 0
 6-311+G(2d,p)
 ****
 33  34 0
 6-311+G(2d,p)
 ****
 1  2  14  15  16  17  18  19  20  21  22  24  25  26  27 0
 3-21G
 ****
 35  36  37  38  39  40  41  42  43  44  45 0
 3-21G
 ****


