%nproc=1
%NoSave
%Mem=1900MB
#P OB98/GEN NMR

erre ene a

0 1
  C      684.200     477.850    -654.708
  O      685.510     478.359    -654.496
  P      686.111     479.365    -655.596
  C      687.947     481.219    -655.587
  O      687.130     480.325    -654.817
  C      688.688     482.175    -654.676
  O      687.745     483.071    -654.019
  C      689.470     481.530    -653.534
  O      690.737     481.033    -653.969
  C      689.638     482.696    -652.579
  O      690.705     483.548    -653.030
  C      688.276     483.418    -652.744
  N      687.624     482.669    -647.712
  C      688.737     482.944    -648.434
  N      688.843     483.095    -649.765
  C      687.627     482.929    -650.378
  C      686.428     482.629    -649.731
  C      686.453     482.500    -648.335
  N      685.313     482.266    -647.599
  N      685.402     482.533    -650.672
  C      685.980     482.792    -651.836
  N      687.331     483.055    -651.694
  O      684.868     480.319    -655.938
  O      686.645     478.686    -656.826
  H      690.852     484.218    -652.328
  H      684.983     480.713    -656.817
  H      689.668     483.018    -647.871
  H      685.484     482.812    -652.801
  H      688.400     484.511    -652.699
  H      689.888     482.370    -651.564
  H      688.859     480.732    -653.054
  H      689.354     482.777    -655.314
  H      687.314     481.766    -656.285
  H      685.381     482.366    -646.601
  H      684.427     482.341    -648.029
  H      688.652     480.605    -656.169
  P      691.206     479.637    -653.358
  C      692.759     477.725    -654.232
  O      692.210     479.011    -654.443
  O      689.914     478.723    -653.458
  O      691.740     479.726    -651.931
  H      689.922     478.000    -652.774
  H      693.130     477.335    -655.155
  H      691.975     477.023    -653.844
  H      693.577     477.766    -653.495
  H      683.935     477.199    -653.901
  H      684.174     477.306    -655.629
  H      683.505     478.662    -654.754

 3  4  5  6  7  8  9  10  11  12  22  25  29  30  31  32 0
 6-311+G(2d,p)
 ****
 33  36  37 0
 6-311+G(2d,p)
 ****
 1  2  13  14  15  16  17  18  19  20  21  23  24  26 0
 3-21G
 ****
 27  28  34  35  38  39  40  41  42  43  44  45  46  47  48 0
 3-21G
 ****


