%nproc=1
%NoSave
%Mem=1900MB
#P OB98/GEN NMR

erre ene a

0 1
  C       20.643    -336.048     347.052
  O       21.846    -336.676     347.440
  H       20.712    -335.775     345.994
  H       20.485    -335.142     347.640
  H       19.797    -336.729     347.186
  P       21.953    -337.154     348.968
  C       23.788    -335.421     349.572
  O       23.448    -336.795     349.446
  C       25.137    -335.145     348.907
  O       26.200    -335.653     349.765
  C       25.300    -335.807     347.532
  O       26.028    -334.920     346.676
  C       26.164    -337.018     347.832
  O       26.869    -337.479     346.683
  C       27.056    -336.461     348.935
  N       30.886    -339.728     348.928
  C       30.541    -338.750     348.017
  N       31.335    -338.622     346.930
  N       29.503    -337.965     348.158
  C       28.814    -338.187     349.302
  C       29.045    -339.128     350.279
  C       30.184    -340.007     350.099
  O       30.531    -340.906     350.861
  N       28.098    -339.059     351.268
  C       27.296    -338.074     350.893
  N       27.693    -337.515     349.706
  O       21.975    -338.753     348.856
  O       20.872    -336.667     349.871
  H       27.319    -338.316     346.922
  H       21.578    -339.160     349.652
  H       31.689    -340.311     348.765
  H       26.424    -337.737     351.433
  H       27.859    -335.828     348.547
  H       25.541    -337.843     348.207
  H       32.164    -339.166     346.771
  H       24.354    -336.075     347.059
  H       31.104    -337.900     346.256
  H       25.281    -334.060     348.844
  H       23.847    -335.166     350.637
  H       23.011    -334.812     349.098
  P       25.181    -333.938     345.731
  C       25.631    -335.213     343.510
  O       25.786    -334.005     344.243
  O       25.617    -332.482     346.243
  O       23.701    -334.127     345.833
  H       24.883    -332.074     346.731
  H       26.081    -335.105     342.545
  H       24.589    -335.429     343.395
  H       26.105    -336.014     344.038

 6  7  8  9  10  11  12  13  14  15  26  29  33  34 0
 6-311+G(2d,p)
 ****
 36  38  39  40  41 0
 6-311+G(2d,p)
 ****
 1  2  3  4  5  16  17  18  19  20  21  22  23  24  25 0
 3-21G
 ****
 27  28  30  31  32  35  37  42  43  44  45  46  47 0
 3-21G
 ****
 48  49 0
 3-21G
 ****


