%nproc=1
%NoSave
%Mem=1900MB
#P OB98/GEN NMR

erre ene a

0 1
  C        1.810      87.156     -44.860
  O        0.707      87.054     -45.763
  P        0.685      88.104     -46.976
  C       -1.679      89.143     -46.729
  O       -0.835      88.267     -47.461
  C       -3.051      89.256     -47.397
  O       -3.826      88.049     -47.268
  C       -3.914      90.369     -46.818
  O       -3.517      91.620     -47.352
  C       -5.307      89.943     -47.261
  O       -5.584      90.376     -48.608
  C       -5.229      88.410     -47.197
  N       -7.904      84.480     -45.440
  C       -7.597      84.831     -46.741
  N       -8.045      84.004     -47.709
  N       -6.910      85.896     -47.061
  C       -6.525      86.630     -45.991
  C       -6.744      86.370     -44.658
  C       -7.508      85.190     -44.317
  O       -7.787      84.824     -43.181
  N       -6.145      87.311     -43.859
  C       -5.676      88.202     -44.713
  N       -5.824      87.804     -46.019
  O        1.390      87.303     -48.169
  O        1.399      89.378     -46.672
  H       -6.471      90.065     -48.866
  H        2.266      87.690     -48.355
  H       -8.444      83.653     -45.251
  H       -5.202      89.132     -44.439
  H       -5.723      87.947     -48.059
  H       -6.086      90.382     -46.632
  H       -8.577      83.166     -47.534
  H       -3.850      90.366     -45.723
  H       -7.823      84.240     -48.668
  H       -2.882      89.437     -48.467
  H       -1.222      90.131     -46.658
  H       -1.774      88.766     -45.705
  P       -3.412      92.864     -46.348
  C       -4.484      94.607     -47.944
  O       -3.333      94.192     -47.236
  O       -1.937      92.717     -45.740
  O       -4.441      92.875     -45.267
  H       -1.966      92.867     -44.777
  H       -4.465      95.695     -48.042
  H       -5.403      94.312     -47.430
  H       -4.471      94.161     -48.943
  H        1.718      86.410     -44.098
  H        1.814      88.127     -44.410
  H        2.724      87.007     -45.396

 3  4  5  6  7  8  9  10  11  12  23  26  30  31 0
 6-311+G(2d,p)
 ****
 33  35  36  37  38 0
 6-311+G(2d,p)
 ****
 1  2  13  14  15  16  17  18  19  20  21  22  24  25 0
 3-21G
 ****
 27  28  29  32  34  39  40  41  42  43  44  45  46  47  48  49 0
 3-21G
 ****


