%nproc=1
%NoSave
%Mem=1900MB
#P OB98/GEN NMR

erre ene a

0 1
  C     -132.976    -395.334      66.277
  O     -133.754    -394.264      66.817
  P     -134.735    -393.481      65.824
  C     -133.147    -391.456      65.420
  O     -133.846    -392.542      64.853
  C     -132.020    -390.952      64.507
  O     -132.565    -390.444      63.256
  C     -131.177    -389.819      65.107
  O     -129.859    -389.908      64.583
  C     -131.849    -388.582      64.536
  O     -130.995    -387.434      64.614
  C     -132.171    -389.069      63.119
  N     -133.489    -384.433      61.609
  C     -132.343    -384.875      62.241
  N     -131.386    -383.946      62.493
  N     -132.143    -386.115      62.615
  C     -133.178    -386.933      62.273
  C     -134.353    -386.628      61.659
  C     -134.577    -385.253      61.279
  O     -135.568    -384.801      60.740
  N     -135.168    -387.725      61.512
  C     -134.451    -388.711      62.037
  N     -133.246    -388.297      62.496
  O     -135.461    -392.414      66.804
  O     -135.744    -394.346      65.145
  H     -131.196    -386.875      63.833
  H     -136.376    -392.670      66.952
  H     -133.593    -383.468      61.373
  H     -134.787    -389.743      62.143
  H     -131.300    -389.029      62.463
  H     -132.768    -388.354      65.096
  H     -131.452    -382.977      62.187
  H     -131.137    -389.807      66.200
  H     -130.523    -384.256      62.926
  H     -131.376    -391.814      64.250
  H     -132.707    -391.756      66.402
  H     -133.853    -390.653      65.661
  P     -128.782    -390.680      65.475
  C     -127.564    -388.674      66.597
  O     -128.484    -389.755      66.744
  O     -127.414    -390.557      64.599
  O     -129.116    -392.096      65.769
  H     -126.812    -391.294      64.812
  H     -128.124    -387.728      66.525
  H     -126.931    -388.805      65.724
  H     -126.935    -388.643      67.509
  H     -132.372    -395.761      67.050
  H     -132.346    -394.959      65.498
  H     -133.628    -396.083      65.878

 3  4  5  6  7  8  9  10  11  12  23  26  30  31 0
 6-311+G(2d,p)
 ****
 33  35  36  37  38 0
 6-311+G(2d,p)
 ****
 1  2  13  14  15  16  17  18  19  20  21  22  24  25 0
 3-21G
 ****
 27  28  29  32  34  39  40  41  42  43  44  45  46  47  48  49 0
 3-21G
 ****


