%nproc=1
%NoSave
%Mem=1900MB
#P OB98/GEN NMR

erre ene a

0 1
  C      160.153     -26.306     -49.867
  O      160.963     -25.221     -50.268
  H      160.181     -27.070     -50.651
  H      159.118     -25.978     -49.738
  H      160.522     -26.747     -48.937
  P      161.231     -24.033     -49.224
  C      159.749     -22.673     -47.612
  O      159.799     -23.448     -48.804
  C      158.421     -21.924     -47.532
  O      158.441     -20.785     -48.420
  C      157.219     -22.755     -47.968
  O      156.849     -23.694     -46.975
  C      156.200     -21.663     -48.239
  O      155.574     -21.228     -47.026
  C      157.077     -20.540     -48.834
  N      156.971     -20.473     -50.291
  C      155.685     -20.557     -50.817
  O      154.674     -20.670     -50.127
  N      155.602     -20.571     -52.185
  C      156.660     -20.649     -53.047
  O      156.538     -20.909     -54.241
  C      157.990     -20.494     -52.439
  C      158.084     -20.427     -51.108
  O      162.234     -23.013     -49.651
  O      161.706     -24.797     -47.898
  H      162.677     -24.730     -47.820
  H      155.173     -22.030     -46.629
  H      154.674     -20.675     -52.574
  H      158.852     -20.479     -53.096
  H      159.058     -20.347     -50.632
  H      156.790     -19.567     -48.417
  H      155.414     -22.007     -48.914
  H      157.446     -23.270     -48.909
  H      158.290     -21.555     -46.506
  H      160.575     -21.950     -47.627
  H      159.872     -23.336     -46.748
  P      156.157     -25.078     -47.388
  C      153.928     -25.847     -48.414
  O      154.630     -24.781     -47.782
  O      156.349     -26.199     -46.421
  O      156.820     -25.434     -48.804
  H      157.140     -26.357     -48.780
  H      152.927     -25.537     -48.629
  H      153.906     -26.696     -47.763
  H      154.424     -26.110     -49.325

 6  7  8  9  10  11  12  13  14  15  16  27  31  32  33  34  35 0
 6-311+G(2d,p)
 ****
 36  37 0
 6-311+G(2d,p)
 ****
 1  2  3  4  5  17  18  19  20  21  22  23  24  25 0
 3-21G
 ****
 26  28  29  30  38  39  40  41  42  43  44  45 0
 3-21G
 ****


