%nproc=1
%NoSave
%Mem=1900MB
#P OB98/GEN NMR

erre ene a

0 1
  C      283.202       9.320      21.416
  O      282.997       8.791      20.119
  H      282.862       8.588      22.152
  H      282.621      10.239      21.536
  H      284.263       9.524      21.583
  P      283.645       9.610      18.904
  C      281.353      10.132      17.738
  O      282.628       9.505      17.662
  C      280.576       9.895      16.446
  O      281.275      10.458      15.318
  C      280.413       8.431      16.074
  O      279.486       7.761      16.898
  C      279.957       8.557      14.626
  O      278.544       8.774      14.532
  C      280.739       9.802      14.143
  N      281.771       9.454      13.183
  C      281.306       9.049      11.926
  O      280.096       9.027      11.690
  N      282.219       8.644      10.987
  C      283.481       8.620      11.284
  N      284.332       8.178      10.317
  C      284.013       9.037      12.598
  C      283.110       9.436      13.493
  O      284.860       8.670      18.462
  O      284.043      11.008      19.236
  H      278.379       9.666      14.903
  H      284.612       7.739      18.341
  H      285.075       9.010      12.791
  H      283.411       9.760      14.483
  H      280.058      10.521      13.667
  H      280.178       7.652      14.054
  H      281.390       7.928      16.081
  H      279.603      10.395      16.537
  H      283.921       7.850       9.451
  H      281.462      11.206      17.924
  H      285.323       8.042      10.461
  H      280.820       9.699      18.590
  P      279.730       6.249      17.368
  C      277.519       5.306      16.439
  O      278.280       5.597      17.608
  O      280.677       6.077      18.509
  O      280.203       5.522      16.020
  H      279.560       5.554      15.292
  H      276.580       4.879      16.722
  H      278.057       4.612      15.827
  H      277.349       6.209      15.890

 6  7  8  9  10  11  12  13  14  15  16  26  30  31  32  33  35 0
 6-311+G(2d,p)
 ****
 37  38 0
 6-311+G(2d,p)
 ****
 1  2  3  4  5  17  18  19  20  21  22  23  24  25 0
 3-21G
 ****
 27  28  29  34  36  39  40  41  42  43  44  45  46 0
 3-21G
 ****


