%nproc=1
%NoSave
%Mem=1900MB
#P OB98/GEN NMR

erre ene a

0 1
  C      117.362     -45.160     -84.803
  O      118.627     -44.507     -84.676
  P      119.719     -44.822     -85.807
  C      118.387     -44.009     -87.885
  O      119.494     -43.796     -87.019
  C      118.641     -43.342     -89.236
  O      117.591     -43.636     -90.184
  C      118.695     -41.820     -89.159
  O      119.920     -41.383     -88.594
  C      118.505     -41.453     -90.626
  O      119.739     -41.607     -91.347
  C      117.496     -42.515     -91.095
  N      112.890     -43.125     -93.239
  C      114.065     -43.765     -93.425
  N      115.249     -43.541     -92.817
  C      115.142     -42.546     -91.921
  C      114.011     -41.805     -91.619
  C      112.840     -42.125     -92.327
  N      111.646     -41.464     -92.147
  N      114.289     -40.865     -90.647
  C      115.572     -41.021     -90.386
  N      116.128     -42.032     -91.122
  O      119.236     -46.226     -86.404
  O      121.117     -44.894     -85.288
  H      120.392     -41.001     -90.944
  H      119.846     -46.935     -86.124
  H      114.055     -44.563     -94.164
  H      116.138     -40.429     -89.677
  H      117.725     -42.890     -92.099
  H      118.169     -40.422     -90.770
  H      117.854     -41.442     -88.565
  H      119.589     -43.728     -89.634
  H      117.474     -43.606     -87.438
  H      110.876     -41.702     -92.752
  H      111.620     -40.660     -91.536
  H      118.232     -45.087     -87.999
  P      119.863     -40.190     -87.523
  C      120.075     -41.435     -85.285
  O      120.762     -40.732     -86.305
  O      118.378     -40.337     -86.954
  O      120.232     -38.848     -88.055
  H      118.156     -41.265     -86.756
  H      120.803     -41.773     -84.544
  H      119.563     -42.304     -85.705
  H      119.354     -40.774     -84.796
  H      116.727     -44.868     -83.992
  H      117.504     -46.220     -84.781
  H      116.908     -44.880     -85.730

 3  4  5  6  7  8  9  10  11  12  22  25  29  30  31  32 0
 6-311+G(2d,p)
 ****
 33  36  37 0
 6-311+G(2d,p)
 ****
 1  2  13  14  15  16  17  18  19  20  21  23  24  26 0
 3-21G
 ****
 27  28  34  35  38  39  40  41  42  43  44  45  46  47  48 0
 3-21G
 ****


