%nproc=1
%NoSave
%Mem=1900MB
#P OB98/GEN NMR

erre ene a

0 1
  C     -401.731      97.264    -117.651
  O     -401.692      98.358    -118.548
  P     -401.729      98.132    -120.133
  C     -404.249      98.492    -120.436
  O     -403.177      97.564    -120.516
  C     -404.458      99.228    -121.761
  O     -404.821      98.261    -122.791
  C     -405.557     100.300    -121.720
  O     -405.107     101.393    -122.532
  C     -406.741      99.609    -122.366
  O     -407.690     100.530    -122.882
  C     -406.030      98.744    -123.414
  N     -406.860      97.641    -123.878
  C     -407.707      97.900    -124.963
  O     -407.824      99.048    -125.394
  N     -408.405      96.853    -125.516
  C     -408.404      95.702    -124.919
  N     -409.049      94.674    -125.534
  C     -407.719      95.460    -123.632
  C     -406.939      96.451    -123.198
  O     -400.586      97.349    -120.685
  O     -401.751      99.618    -120.737
  H     -401.029      99.706    -121.394
  H     -407.250     101.102    -123.547
  H     -407.848      94.525    -123.112
  H     -406.374      96.363    -122.275
  H     -405.729      99.350    -124.276
  H     -407.249      98.976    -121.623
  H     -405.756     100.660    -120.703
  H     -403.504      99.670    -122.060
  H     -409.474      94.862    -126.438
  H     -404.006      99.227    -119.660
  H     -408.841      93.697    -125.326
  H     -405.165      97.977    -120.132
  P     -405.491     102.888    -122.077
  C     -403.556     103.070    -120.356
  O     -404.952     103.104    -120.582
  O     -407.077     102.753    -121.844
  O     -405.215     103.975    -123.061
  H     -407.490     103.630    -121.958
  H     -403.375     103.164    -119.279
  H     -403.068     103.905    -120.867
  H     -403.130     102.121    -120.700
  H     -401.697      97.626    -116.645
  H     -400.890      96.626    -117.829
  H     -402.635      96.712    -117.801

 3  4  5  6  7  8  9  10  11  12  13  24  27  28  29  30  32 0
 6-311+G(2d,p)
 ****
 34  35 0
 6-311+G(2d,p)
 ****
 1  2  14  15  16  17  18  19  20  21  22  23  25  26 0
 3-21G
 ****
 31  33  36  37  38  39  40  41  42  43  44  45  46 0
 3-21G
 ****


