%nproc=1
%NoSave
%Mem=1900MB
#P OB98/GEN NMR

erre ene a

0 1
  C     -168.121    -143.007    -143.426
  O     -166.955    -142.865    -142.637
  P     -165.738    -141.998    -143.217
  C     -166.790    -139.692    -142.519
  O     -166.331    -140.544    -143.551
  C     -165.763    -138.590    -142.243
  O     -165.541    -137.835    -143.466
  C     -166.181    -137.590    -141.155
  O     -164.991    -137.208    -140.453
  C     -166.725    -136.424    -141.961
  O     -166.718    -135.204    -141.232
  C     -165.778    -136.444    -143.165
  N     -166.314    -135.751    -144.338
  C     -166.058    -134.388    -144.461
  O     -165.428    -133.732    -143.636
  N     -166.585    -133.784    -145.575
  C     -167.377    -134.375    -146.514
  O     -167.836    -133.781    -147.482
  C     -167.655    -135.804    -146.307
  C     -167.112    -136.416    -145.252
  O     -165.530    -142.675    -144.649
  O     -164.532    -141.992    -142.339
  H     -166.364    -142.962    -145.059
  H     -167.178    -134.532    -141.767
  H     -166.378    -132.804    -145.705
  H     -168.290    -136.306    -147.024
  H     -167.301    -137.469    -145.076
  H     -164.810    -136.006    -142.892
  H     -167.757    -136.639    -142.259
  H     -166.908    -138.013    -140.456
  H     -164.810    -139.066    -141.980
  H     -166.941    -140.275    -141.606
  H     -167.755    -139.263    -142.808
  P     -165.126    -136.786    -138.904
  C     -164.644    -139.212    -138.047
  O     -165.514    -138.103    -138.083
  O     -166.508    -135.975    -138.954
  O     -163.995    -135.969    -138.373
  H     -167.210    -136.451    -139.424
  H     -164.910    -139.845    -137.195
  H     -163.602    -138.900    -137.937
  H     -164.755    -139.796    -138.967
  H     -168.834    -143.609    -142.903
  H     -167.869    -143.477    -144.353
  H     -168.541    -142.042    -143.618

 3  4  5  6  7  8  9  10  11  12  13  24  28  29  30  31  32 0
 6-311+G(2d,p)
 ****
 33  34 0
 6-311+G(2d,p)
 ****
 1  2  14  15  16  17  18  19  20  21  22  23  25  26  27 0
 3-21G
 ****
 35  36  37  38  39  40  41  42  43  44  45 0
 3-21G
 ****


