%nproc=1
%NoSave
%Mem=1900MB
#P OB98/GEN NMR

erre ene a

0 1
  C       -4.327     168.050     -27.186
  O       -3.101     168.003     -26.485
  H       -4.231     167.454     -28.098
  H       -4.563     169.079     -27.466
  H       -5.137     167.634     -26.581
  P       -3.017     168.671     -25.031
  C       -2.194     170.886     -26.065
  O       -3.159     170.254     -25.235
  C       -2.718     172.243     -26.530
  O       -3.921     172.072     -27.310
  C       -3.095     173.180     -25.389
  O       -1.947     173.750     -24.792
  C       -3.992     174.169     -26.116
  O       -3.212     175.151     -26.816
  C       -4.738     173.247     -27.106
  N       -6.078     172.886     -26.645
  C       -7.125     173.682     -27.098
  O       -6.964     174.665     -27.820
  N       -8.375     173.325     -26.666
  C       -8.659     172.348     -25.757
  O       -9.789     172.127     -25.333
  C       -7.513     171.555     -25.294
  C       -6.295     171.854     -25.753
  O       -1.863     168.244     -24.188
  O       -4.414     168.272     -24.353
  H       -2.475     175.392     -26.223
  H       -4.266     167.563     -23.701
  H       -9.145     173.899     -26.972
  H       -7.698     170.761     -24.584
  H       -5.436     171.285     -25.418
  H       -4.833     173.737     -28.083
  H       -4.650     174.709     -25.436
  H       -3.693     172.643     -24.644
  H       -1.959     172.703     -27.177
  H       -2.007     170.250     -26.937
  H       -1.260     171.002     -25.502
  P       -1.905     173.986     -23.210
  C       -2.444     176.498     -23.259
  O       -2.891     175.204     -22.871
  O       -0.539     174.095     -22.617
  O       -2.681     172.719     -22.615
  H       -2.080     172.215     -22.034
  H       -3.178     177.226     -22.984
  H       -2.297     176.522     -24.319
  H       -1.520     176.719     -22.766

 6  7  8  9  10  11  12  13  14  15  16  26  31  32  33  34  35 0
 6-311+G(2d,p)
 ****
 36  37 0
 6-311+G(2d,p)
 ****
 1  2  3  4  5  17  18  19  20  21  22  23  24  25 0
 3-21G
 ****
 27  28  29  30  38  39  40  41  42  43  44  45 0
 3-21G
 ****


