%nproc=1
%NoSave
%Mem=1900MB
#P OB98/GEN NMR

erre ene a

0 1
  C      301.996     -88.756      70.088
  O      301.876     -89.922      69.297
  H      302.981     -88.314      69.911
  H      301.903     -88.991      71.151
  H      301.232     -88.027      69.800
  P      300.624     -90.891      69.568
  C      299.709     -92.114      71.650
  O      300.821     -91.439      71.066
  C      300.159     -93.384      72.377
  O      301.103     -93.053      73.416
  C      299.030     -94.119      73.082
  O      298.103     -94.728      72.210
  C      299.779     -94.971      74.097
  O      300.225     -96.217      73.572
  C      300.999     -94.076      74.427
  N      300.914     -93.508      75.768
  C      301.013     -94.415      76.817
  O      301.139     -95.630      76.655
  N      300.915     -93.886      78.074
  C      300.684     -92.574      78.373
  O      300.565     -92.170      79.523
  C      300.564     -91.667      77.221
  C      300.682     -92.167      75.989
  O      300.405     -91.972      68.552
  O      299.389     -89.885      69.711
  H      299.429     -96.743      73.364
  H      298.529     -90.360      69.616
  H      300.995     -94.527      78.847
  H      300.376     -90.619      77.421
  H      300.595     -91.516      75.121
  H      301.925     -94.663      74.371
  H      299.157     -95.194      74.969
  H      298.459     -93.385      73.663
  H      300.664     -94.035      71.654
  H      299.023     -92.387      70.841
  H      299.191     -91.441      72.341
  P      296.696     -95.311      72.694
  C      295.854     -97.034      74.446
  O      296.976     -96.447      73.795
  O      295.678     -95.578      71.633
  O      296.144     -94.094      73.598
  H      295.172     -94.070      73.495
  H      296.192     -97.768      75.147
  H      295.223     -97.500      73.718
  H      295.304     -96.275      74.962

 6  7  8  9  10  11  12  13  14  15  16  26  31  32  33  34  35 0
 6-311+G(2d,p)
 ****
 36  37 0
 6-311+G(2d,p)
 ****
 1  2  3  4  5  17  18  19  20  21  22  23  24  25 0
 3-21G
 ****
 27  28  29  30  38  39  40  41  42  43  44  45 0
 3-21G
 ****


