%nproc=1
%NoSave
%Mem=1900MB
#P OB98/GEN NMR

erre ene a

0 1
  C      -18.176     -19.420       2.084
  O      -16.943     -18.808       1.735
  P      -16.728     -18.383       0.203
  C      -15.448     -20.542      -0.424
  O      -16.608     -19.749      -0.634
  C      -14.482     -20.417      -1.597
  O      -13.312     -21.238      -1.333
  C      -15.067     -20.865      -2.946
  O      -14.689     -19.924      -3.962
  C      -14.340     -22.168      -3.232
  O      -14.280     -22.451      -4.626
  C      -12.987     -21.879      -2.584
  N      -10.288     -25.497      -4.847
  C      -10.790     -24.319      -5.362
  N      -10.592     -24.107      -6.681
  N      -11.433     -23.430      -4.651
  C      -11.530     -23.762      -3.340
  C      -11.067     -24.893      -2.709
  C      -10.409     -25.896      -3.522
  O      -10.022     -26.999      -3.143
  N      -11.340     -24.864      -1.366
  C      -11.971     -23.721      -1.183
  N      -12.154     -23.038      -2.359
  O      -15.236     -17.804       0.201
  O      -17.698     -17.384      -0.324
  H      -13.903     -23.347      -4.720
  H      -15.238     -16.892      -0.149
  H       -9.816     -26.156      -5.443
  H      -12.341     -23.363      -0.230
  H      -12.414     -21.168      -3.193
  H      -14.863     -22.989      -2.731
  H      -10.076     -24.732      -7.278
  H      -16.155     -20.990      -2.946
  H      -10.934     -23.239      -7.073
  H      -14.136     -19.376      -1.654
  H      -15.745     -21.591      -0.314
  H      -14.960     -20.216       0.500
  P      -15.896     -19.219      -4.753
  C      -15.730     -20.761      -6.846
  O      -16.490     -20.340      -5.729
  O      -15.149     -18.207      -5.742
  O      -16.882     -18.532      -3.867
  H      -15.740     -17.470      -5.986
  H      -14.710     -20.364      -6.823
  H      -16.221     -20.419      -7.760
  H      -15.684     -21.853      -6.853
  H      -18.178     -19.647       3.130
  H      -18.298     -20.323       1.523
  H      -18.981     -18.751       1.863

 3  4  5  6  7  8  9  10  11  12  23  26  30  31  33  0
 6-311+G(2d,p)
 ****
 35  36  37  38 0
 6-311+G(2d,p)
 ****
 1  2  13  14  15  16  17  18  19  20  21  22  24  25  27  28  29 0
 3-21G
 ****
 32  34  39  40  41  42  43  44  45  46  47  48  49 0
 3-21G
 ****


