%nproc=1
%NoSave
%Mem=1900MB
#P OB98/GEN NMR

erre ene a

0 1
  C      234.566    -480.756    -524.067
  O      234.306    -480.709    -522.680
  H      234.090    -481.648    -524.486
  H      235.642    -480.813    -524.252
  H      234.153    -479.871    -524.559
  P      235.015    -479.519    -521.862
  C      232.780    -478.763    -520.742
  O      234.068    -479.335    -520.573
  C      232.010    -478.833    -519.426
  O      231.753    -480.204    -519.058
  C      232.749    -478.224    -518.240
  O      232.678    -476.806    -518.213
  C      231.979    -478.848    -517.089
  O      230.711    -478.182    -516.939
  C      231.788    -480.293    -517.609
  N      232.852    -481.202    -517.175
  C      232.446    -482.407    -516.587
  O      231.250    -482.659    -516.439
  N      233.406    -483.287    -516.145
  C      234.664    -482.994    -516.293
  N      235.572    -483.894    -515.821
  C      235.134    -481.747    -516.919
  C      234.187    -480.909    -517.332
  O      234.677    -478.215    -522.727
  O      236.464    -479.703    -521.561
  H      230.903    -477.245    -516.767
  H      234.966    -477.406    -522.240
  H      236.193    -481.546    -517.005
  H      234.461    -479.973    -517.805
  H      230.824    -480.702    -517.286
  H      232.497    -478.770    -516.134
  H      233.787    -478.567    -518.195
  H      231.033    -478.350    -519.580
  H      235.218    -484.706    -515.337
  H      232.254    -479.321    -521.523
  H      236.559    -483.678    -515.723
  H      232.870    -477.717    -521.054
  P      234.067    -475.995    -518.196
  C      233.480    -474.563    -520.279
  O      233.787    -474.578    -518.896
  O      234.954    -476.772    -519.278
  O      234.743    -475.927    -516.862
  H      235.884    -476.834    -518.991
  H      233.320    -473.554    -520.598
  H      232.594    -475.137    -520.454
  H      234.294    -474.987    -520.830

 6  7  8  9  10  11  12  13  14  15  16  26  30  31  32  33  35 0
 6-311+G(2d,p)
 ****
 37  38 0
 6-311+G(2d,p)
 ****
 1  2  3  4  5  17  18  19  20  21  22  23  24  25 0
 3-21G
 ****
 27  28  29  34  36  39  40  41  42  43  44  45  46 0
 3-21G
 ****


