%nproc=1
%NoSave
%Mem=1900MB
#P OB98/GEN NMR

erre ene a

0 1
  C     -390.754    -335.010     407.728
  O     -390.945    -336.030     406.775
  H     -389.878    -334.422     407.434
  H     -390.561    -335.439     408.716
  H     -391.623    -334.350     407.769
  P     -392.143    -337.079     406.977
  C     -393.556    -336.357     404.955
  O     -392.711    -337.368     405.496
  C     -393.396    -336.268     403.438
  O     -392.163    -335.570     403.118
  C     -393.349    -337.633     402.732
  O     -394.219    -337.629     401.602
  C     -391.902    -337.749     402.275
  O     -391.743    -338.629     401.166
  C     -391.572    -336.279     402.011
  N     -390.132    -336.051     401.907
  C     -389.680    -335.499     400.709
  O     -390.475    -335.221     399.811
  N     -388.331    -335.323     400.532
  C     -387.502    -335.707     401.451
  N     -386.180    -335.532     401.199
  C     -387.939    -336.328     402.722
  C     -389.254    -336.463     402.886
  O     -393.171    -336.669     407.979
  O     -391.420    -338.458     407.350
  H     -392.001    -339.539     401.447
  H     -392.061    -339.036     407.824
  H     -387.209    -336.634     403.455
  H     -389.671    -336.900     403.788
  H     -392.046    -335.927     401.086
  H     -391.284    -338.130     403.098
  H     -393.628    -338.459     403.390
  H     -394.213    -335.649     403.043
  H     -385.923    -335.110     400.312
  H     -393.295    -335.399     405.424
  H     -385.442    -335.816     401.833
  H     -394.590    -336.610     405.191
  P     -394.614    -339.067     401.000
  C     -397.198    -338.921     400.870
  O     -395.968    -338.901     400.164
  O     -395.059    -339.898     402.301
  O     -393.488    -339.739     400.278
  H     -394.396    -340.585     402.496
  H     -398.007    -338.800     400.180
  H     -397.214    -338.123     401.582
  H     -397.301    -339.856     401.380

 6  7  8  9  10  11  12  13  14  15  16  26  30  31  32  33  35 0
 6-311+G(2d,p)
 ****
 37  38 0
 6-311+G(2d,p)
 ****
 1  2  3  4  5  17  18  19  20  21  22  23  24  25 0
 3-21G
 ****
 27  28  29  34  36  39  40  41  42  43  44  45  46 0
 3-21G
 ****


