%nproc=1
%NoSave
%Mem=1900MB
#P OB98/GEN NMR

erre ene a

0 1
  C     -340.297       0.095     111.993
  O     -340.981      -1.117     112.238
  H     -340.585       0.500     111.019
  H     -340.571       0.817     112.766
  H     -339.217      -0.066     112.025
  P     -340.709      -2.323     111.213
  C     -342.644      -1.437     109.718
  O     -341.278      -1.826     109.796
  C     -343.284      -2.054     108.480
  O     -342.763      -1.430     107.286
  C     -343.017      -3.547     108.313
  O     -343.883      -4.337     109.108
  C     -343.316      -3.718     106.834
  O     -344.742      -3.742     106.624
  C     -342.712      -2.440     106.241
  N     -339.472      -1.846     102.325
  C     -340.797      -1.613     102.442
  N     -341.585      -1.803     103.519
  C     -340.877      -2.283     104.553
  C     -339.524      -2.576     104.579
  C     -338.803      -2.331     103.395
  N     -337.455      -2.580     103.267
  N     -339.158      -3.089     105.810
  C     -340.268      -3.069     106.520
  N     -341.337      -2.600     105.802
  O     -341.767      -3.440     111.655
  O     -339.311      -2.842     111.177
  H     -344.881      -3.768     105.658
  H     -341.487      -4.314     111.331
  H     -341.287      -1.228     101.551
  H     -340.348      -3.382     107.553
  H     -343.284      -2.062     105.387
  H     -342.918      -4.648     106.422
  H     -341.963      -3.792     108.497
  H     -344.362      -1.854     108.517
  H     -342.704      -0.347     109.652
  H     -337.076      -2.547     102.334
  H     -336.985      -3.078     104.010
  H     -343.165      -1.770     110.621
  P     -343.379      -5.808     109.506
  C     -344.742      -6.936     107.596
  O     -343.458      -6.677     108.161
  O     -344.585      -6.378     110.392
  O     -342.073      -5.850     110.230
  H     -344.263      -7.057     111.018
  H     -344.629      -7.523     106.709
  H     -345.218      -6.009     107.352
  H     -345.342      -7.470     108.303

 6  7  8  9  10  11  12  13  14  15  25  28  32  33  34  35 0
 6-311+G(2d,p)
 ****
 36  39  40 0
 6-311+G(2d,p)
 ****
 1  2  3  4  5  16  17  18  19  20  21  22  23  24 0
 3-21G
 ****
 26  27  29  30  31  37  38  41  42  43  44  45  46  47 0
 3-21G
 ****
 48 0
 3-21G
 ****


