%nproc=1
%NoSave
%Mem=1900MB
#P OB98/GEN NMR

erre ene a

0 1
  C       -3.088    -891.870     -83.175
  O       -3.698    -891.500     -81.923
  P       -2.740    -891.360     -80.648
  C       -2.484    -893.970     -80.778
  O       -1.859    -892.710     -80.631
  C       -1.460    -895.100     -80.624
  O       -0.799    -895.020     -79.338
  C       -2.033    -896.500     -80.711
  O       -2.372    -896.850     -82.041
  C       -0.917    -897.310     -80.102
  O        0.114    -897.550     -81.073
  C       -0.388    -896.360     -78.996
  N       -0.815    -896.740     -77.662
  C       -0.038    -897.700     -77.023
  O        0.963    -898.210     -77.542
  N       -0.432    -898.050     -75.767
  C       -1.530    -897.590     -75.098
  O       -1.828    -897.920     -73.976
  C       -2.343    -896.610     -75.854
  C       -1.959    -896.240     -77.068
  O       -3.787    -891.550     -79.454
  O       -1.973    -890.080     -80.635
  H       -4.491    -892.190     -79.661
  H        0.429    -896.670     -81.359
  H        0.130    -898.740     -75.269
  H       -3.240    -896.240     -75.371
  H       -2.552    -895.540     -77.643
  H        0.723    -896.350     -79.020
  H       -1.257    -898.280     -79.733
  H       -2.927    -896.570     -80.078
  H       -0.698    -894.950     -81.412
  H       -2.959    -894.040     -81.761
  H       -3.285    -894.070     -80.022
  P       -3.949    -896.920     -82.397
  C       -4.041    -899.420     -81.673
  O       -4.551    -898.110     -81.527
  O       -3.895    -897.490     -83.900
  O       -4.652    -895.610     -82.271
  H       -3.257    -898.230     -83.985
  H       -4.313    -900.000     -80.780
  H       -2.954    -899.420     -81.770
  H       -4.486    -899.890     -82.558
  H       -3.839    -891.926     -83.935
  H       -2.612    -892.823     -83.072
  H       -2.359    -891.135     -83.448

 3  4  5  6  7  8  9  10  11  12  13  24  28  29  30  31  32 0
 6-311+G(2d,p)
 ****
 33  34 0
 6-311+G(2d,p)
 ****
 1  2  14  15  16  17  18  19  20  21  22  23  25  26  27 0
 3-21G
 ****
 35  36  37  38  39  40  41  42  43  44  45 0
 3-21G
 ****


