%nproc=1
%NoSave
%Mem=1900MB
#P OB98/GEN NMR

erre ene a

0 1
  C     -107.728     306.891    -278.227
  O     -107.127     305.619    -278.373
  H     -107.544     307.474    -279.136
  H     -107.285     307.416    -277.378
  H     -108.809     306.798    -278.086
  P     -107.466     304.469    -277.309
  C     -108.723     303.130    -279.126
  O     -107.694     303.116    -278.143
  C     -108.381     302.181    -280.281
  O     -107.145     302.652    -280.916
  C     -108.150     300.720    -279.849
  O     -108.579     299.880    -280.929
  C     -106.634     300.696    -279.708
  O     -106.139     299.385    -279.630
  C     -106.245     301.526    -280.934
  N     -104.853     301.964    -280.923
  C     -103.914     301.129    -281.527
  O     -104.197     300.065    -282.080
  N     -102.614     301.552    -281.465
  C     -102.171     302.697    -280.866
  O     -100.996     303.039    -280.860
  C     -103.205     303.523    -280.222
  C     -104.480     303.125    -280.275
  O     -108.545     304.792    -276.328
  O     -106.064     304.207    -276.577
  H     -106.039     304.700    -275.733
  H     -106.356     298.883    -280.447
  H     -101.921     300.957    -281.897
  H     -102.881     304.428    -279.722
  H     -105.267     303.711    -279.811
  H     -106.438     300.971    -281.857
  H     -106.332     301.205    -278.785
  H     -108.690     300.452    -278.937
  H     -109.172     302.249    -281.041
  H     -108.824     304.157    -279.497
  H     -109.668     302.826    -278.660
  P     -110.039     299.209    -281.004
  C     -110.596     300.096    -283.363
  O     -110.431     298.949    -282.540
  O     -111.085     299.969    -280.247
  O     -109.865     297.740    -280.393
  H     -110.671     297.497    -279.896
  H     -110.854     299.789    -284.355
  H     -109.682     300.652    -283.388
  H     -111.376     300.711    -282.966

 6  7  8  9  10  11  12  13  14  15  16  27  31  32  33  34  35 0
 6-311+G(2d,p)
 ****
 36  37 0
 6-311+G(2d,p)
 ****
 1  2  3  4  5  17  18  19  20  21  22  23  24  25 0
 3-21G
 ****
 26  28  29  30  38  39  40  41  42  43  44  45 0
 3-21G
 ****


