%nproc=1
%NoSave
%Mem=1900MB
#P OB98/GEN NMR

erre ene a

0 1
  C      164.269     137.075     368.879
  O      164.738     135.959     369.612
  H      163.234     137.274     369.171
  H      164.302     136.868     367.806
  H      164.878     137.955     369.111
  P      166.239     135.478     369.305
  C      167.063     135.234     371.734
  O      166.623     134.553     370.563
  C      166.457     134.591     372.987
  O      165.015     134.719     372.915
  C      166.788     133.104     373.123
  O      167.007     132.797     374.501
  C      165.525     132.409     372.643
  O      165.375     131.103     373.196
  C      164.443     133.404     373.065
  N      160.853     130.138     371.489
  C      161.835     130.027     372.406
  N      162.743     130.958     372.776
  C      162.530     132.113     372.130
  C      161.570     132.380     371.163
  C      160.705     131.320     370.841
  N      159.718     131.418     369.889
  N      161.698     133.677     370.695
  C      162.713     134.187     371.375
  N      163.253     133.277     372.242
  O      167.212     136.556     368.980
  O      165.997     134.397     368.148
  H      165.117     131.200     374.136
  H      165.245     133.814     368.350
  H      161.908     129.064     372.904
  H      163.094     135.200     371.269
  H      164.137     133.272     374.110
  H      165.552     132.308     371.548
  H      167.660     132.811     372.537
  H      166.785     135.158     373.866
  H      166.772     136.290     371.687
  H      159.125     130.615     369.727
  H      159.578     132.294     369.406
  H      168.157     135.175     371.771
  P      168.293     131.924     374.897
  C      170.269     133.408     375.666
  O      169.096     132.698     376.056
  O      169.124     131.434     373.756
  O      167.643     130.693     375.702
  H      168.141     129.882     375.483
  H      170.705     133.875     376.524
  H      170.010     134.156     374.946
  H      170.972     132.726     375.235

 6  7  8  9  10  11  12  13  14  15  25  28  32  33  34  35 0
 6-311+G(2d,p)
 ****
 36  39  40 0
 6-311+G(2d,p)
 ****
 1  2  3  4  5  16  17  18  19  20  21  22  23  24 0
 3-21G
 ****
 26  27  29  30  31  37  38  41  42  43  44  45  46  47 0
 3-21G
 ****
 48 0
 3-21G
 ****


