%nproc=1
%NoSave
%Mem=1900MB
#P OB98/GEN NMR

erre ene a

0 1
  C     -208.292     -24.666    -409.666
  O     -207.517     -25.853    -409.722
  P     -206.839     -26.356    -408.358
  C     -204.554     -26.776    -409.527
  O     -205.650     -27.329    -408.799
  C     -203.513     -27.850    -409.827
  O     -202.872     -28.262    -408.605
  C     -204.076     -29.116    -410.443
  O     -204.347     -28.923    -411.818
  C     -202.962     -30.114    -410.163
  O     -201.966     -30.074    -411.200
  C     -202.388     -29.603    -408.819
  N     -202.717     -30.479    -407.705
  C     -202.336     -31.826    -407.854
  O     -201.786     -32.200    -408.889
  N     -202.634     -32.702    -406.837
  C     -203.253     -32.284    -405.783
  N     -203.523     -33.200    -404.808
  C     -203.689     -30.882    -405.594
  C     -203.390     -30.044    -406.593
  O     -207.936     -27.348    -407.749
  O     -206.473     -25.264    -407.403
  H     -201.601     -29.162    -411.178
  H     -207.860     -27.408    -406.786
  H     -204.200     -30.586    -404.696
  H     -203.671     -28.997    -406.541
  H     -201.289     -29.533    -408.883
  H     -203.337     -31.142    -410.116
  H     -204.993     -29.423    -409.915
  H     -202.739     -27.407    -410.481
  H     -203.217     -34.154    -404.966
  H     -204.091     -25.981    -408.941
  H     -203.978     -32.960    -403.937
  H     -204.939     -26.336    -410.462
  P     -205.865     -29.093    -412.310
  C     -205.257     -30.573    -414.309
  O     -205.758     -29.324    -413.887
  O     -206.419     -27.587    -412.233
  O     -206.723     -30.043    -411.552
  H     -207.376     -27.571    -412.412
  H     -205.379     -30.666    -415.394
  H     -205.795     -31.391    -413.826
  H     -204.186     -30.644    -414.069
  H     -208.682     -24.448    -410.638
  H     -207.677     -23.854    -409.338
  H     -209.101     -24.801    -408.979

 3  4  5  6  7  8  9  10  11  12  13  21  23  27  28  29  30  32 0
 6-311+G(2d,p)
 ****
 34  35 0
 6-311+G(2d,p)
 ****
 1  2  14  15  16  17  18  19  20  22  24  25  26 0
 3-21G
 ****
 31  33  36  37  38  39  40  41  42  43  44  45  46 0
 3-21G
 ****


