%nproc=1
%NoSave
%Mem=1900MB
#P OB98/GEN NMR

erre ene a

0 1
  C       39.682      99.579      64.425
  O       39.958     100.776      65.123
  H       39.437      98.798      65.150
  H       40.561      99.265      63.855
  H       38.831      99.717      63.753
  P       40.303     102.066      64.233
  C       38.434     103.684      65.041
  O       39.814     103.339      65.078
  C       38.153     104.799      66.044
  O       38.097     104.243      67.378
  C       39.227     105.879      66.095
  O       39.100     106.805      65.031
  C       38.967     106.490      67.466
  O       37.913     107.460      67.419
  C       38.523     105.276      68.293
  N       39.667     101.879      71.916
  C       38.538     102.098      71.206
  N       38.320     103.016      70.241
  C       39.428     103.747      70.027
  C       40.645     103.644      70.676
  C       40.750     102.652      71.664
  N       41.886     102.452      72.411
  N       41.525     104.602      70.211
  C       40.853     105.265      69.292
  N       39.584     104.779      69.145
  O       39.237     101.971      63.040
  O       41.705     102.135      63.728
  H       37.087     106.967      67.247
  H       39.643     101.523      62.274
  H       37.698     101.453      71.449
  H       41.234     106.100      68.718
  H       37.669     105.506      68.941
  H       39.855     106.993      67.852
  H       40.225     105.422      66.096
  H       37.173     105.235      65.816
  H       37.835     102.804      65.302
  H       38.176     104.002      64.026
  H       41.881     101.737      73.120
  H       42.662     103.093      72.305
  P       40.370     107.072      64.094
  C       38.725     107.199      62.084
  O       39.844     107.767      62.748
  O       40.794     105.603      63.623
  O       41.495     107.792      64.760
  H       41.550     105.282      64.150
  H       38.500     107.773      61.210
  H       37.881     107.203      62.741
  H       38.952     106.192      61.801

 6  7  8  9  10  11  12  13  14  15  25  28  32  33  34  35 0
 6-311+G(2d,p)
 ****
 36  37  40 0
 6-311+G(2d,p)
 ****
 1  2  3  4  5  16  17  18  19  20  21  22  23  24 0
 3-21G
 ****
 26  27  29  30  31  38  39 41  42  43  44  45  46  47  48 0
 3-21G
 ****


