%nproc=1
%NoSave
%Mem=1900MB
#P OB98/GEN NMR

erre ene a

0 1
  C      -78.344     891.870     311.689
  O      -79.502     891.197     311.235
  H      -78.608     892.911     311.905
  H      -77.570     891.857     310.917
  H      -77.968     891.408     312.605
  P      -79.329     889.637     310.883
  C      -77.916     888.275     309.177
  O      -78.269     889.562     309.681
  C      -78.570     888.063     307.814
  O      -78.172     889.115     306.907
  C      -78.161     886.767     307.134
  O      -78.847     885.645     307.655
  C      -78.515     887.069     305.680
  O      -79.903     886.836     305.418
  C      -78.191     888.569     305.569
  N      -75.822     888.758     301.051
  C      -77.127     888.583     301.377
  N      -77.676     888.559     302.611
  C      -76.739     888.766     303.560
  C      -75.378     888.957     303.368
  C      -74.927     888.960     302.037
  N      -73.597     889.111     301.700
  N      -74.733     889.101     304.575
  C      -75.690     888.994     305.490
  N      -76.915     888.803     304.916
  O      -80.724     889.271     310.188
  O      -79.044     888.755     312.050
  H      -80.008     886.871     304.445
  H      -81.304     888.826     310.837
  H      -77.806     888.444     300.550
  H      -75.540     889.047     306.563
  H      -78.960     889.117     305.006
  H      -77.938     886.440     305.004
  H      -77.075     886.627     307.207
  H      -79.661     888.114     307.933
  H      -78.269     887.503     309.870
  H      -76.833     888.215     309.097
  H      -73.336     889.026     300.733
  H      -72.909     889.143     302.436
  P      -78.365     884.184     307.190
  C      -78.109     882.993     304.889
  O      -78.714     884.035     305.636
  O      -79.371     883.193     307.913
  O      -76.942     883.875     307.524
  H      -78.907     882.370     308.182
  H      -78.449     883.037     303.875
  H      -78.376     882.048     305.314
  H      -77.045     883.108     304.914

 6  7  8  9  10  11  12  13  14  15  25  28  32  33  34  35 0
 6-311+G(2d,p)
 ****
 36  37  40 0
 6-311+G(2d,p)
 ****
 1  2  3  4  5  16  17  18  19  20  21  22  23  24 0
 3-21G
 ****
 26  27  29  30  31  38  39 41  42  43  44  45  46  47  48 0
 3-21G
 ****


