%nproc=1
%NoSave
%Mem=1900MB
#P OB98/GEN NMR

erre ene a

0 1
  C      -48.045    -180.363     325.005
  O      -47.228    -181.312     324.343
  P      -46.898    -182.724     325.022
  C      -44.632    -181.631     325.508
  O      -45.296    -182.836     325.156
  C      -44.085    -180.922     324.264
  O      -43.531    -179.630     324.663
  C      -42.981    -181.683     323.522
  O      -43.136    -181.385     322.127
  C      -41.705    -181.025     324.039
  O      -40.593    -181.229     323.179
  C      -42.177    -179.579     324.158
  N      -39.688    -175.156     324.778
  C      -40.379    -175.655     323.734
  N      -40.990    -176.855     323.638
  C      -40.838    -177.562     324.777
  C      -40.135    -177.197     325.913
  C      -39.547    -175.913     325.897
  N      -38.866    -175.375     326.966
  N      -40.163    -178.219     326.842
  C      -40.864    -179.179     326.277
  N      -41.345    -178.799     325.053
  O      -47.553    -183.908     324.385
  O      -47.377    -182.544     326.540
  H      -40.374    -182.180     323.183
  H      -48.209    -183.043     326.688
  H      -40.457    -175.007     322.867
  H      -41.052    -180.151     326.702
  H      -42.200    -179.074     323.183
  H      -41.457    -181.449     325.023
  H      -42.997    -182.768     323.688
  H      -44.931    -180.713     323.590
  H      -43.800    -181.883     326.174
  H      -38.606    -174.402     326.897
  H      -38.976    -175.798     327.883
  H      -45.321    -180.968     326.049
  P      -43.536    -182.550     321.098
  C      -41.115    -182.989     320.376
  O      -42.407    -182.570     319.963
  O      -44.942    -182.512     320.597
  O      -43.234    -183.898     321.924
  H      -43.701    -184.651     321.503
  H      -40.597    -182.155     320.875
  H      -40.535    -183.289     319.501
  H      -41.181    -183.837     321.070
  H      -48.146    -179.491     324.393
  H      -47.595    -180.094     325.938
  H      -49.011    -180.787     325.184

 3  4  5  6  7  8  9  10  11  12  22  25  29  30  31  32 0
 6-311+G(2d,p)
 ****
 33  36  37 0
 6-311+G(2d,p)
 ****
 1  2  13  14  15  16  17  18  19  20  21  23  24  26 0
 3-21G
 ****
 27  28  34  35  38  39  40  41  42  43  44  45  46  47  48 0
 3-21G
 ****


