%nproc=1
%NoSave
%Mem=1900MB
#P OB98/GEN NMR

erre ene a

0 1
  C     -166.868     338.653    -360.168
  O     -166.377     337.926    -359.057
  H     -167.223     337.965    -360.943
  H     -167.706     339.271    -359.836
  H     -166.087     339.302    -360.572
  P     -165.114     336.970    -359.330
  C     -166.603     335.037    -360.216
  O     -165.560     335.962    -360.496
  C     -166.011     333.708    -359.750
  O     -167.069     332.777    -359.435
  C     -165.137     333.003    -360.781
  O     -163.827     333.552    -360.827
  C     -165.126     331.585    -360.222
  O     -164.191     331.500    -359.130
  C     -166.565     331.439    -359.696
  N     -169.962     327.658    -360.294
  C     -169.297     328.110    -359.209
  N     -168.424     329.135    -359.123
  C     -168.275     329.730    -360.321
  C     -168.902     329.398    -361.511
  C     -169.778     328.301    -361.475
  N     -170.402     327.802    -362.612
  N     -168.483     330.230    -362.533
  C     -167.607     331.038    -361.969
  N     -167.452     330.779    -360.634
  O     -165.078     336.050    -358.017
  O     -163.817     337.677    -359.546
  H     -164.505     332.120    -358.445
  H     -164.428     336.414    -357.387
  H     -169.485     327.571    -358.283
  H     -167.061     331.816    -362.488
  H     -166.605     330.889    -358.751
  H     -164.832     330.834    -360.963
  H     -165.605     332.993    -361.771
  H     -165.449     333.895    -358.822
  H     -167.195     334.868    -361.120
  H     -170.602     326.807    -362.563
  H     -170.022     328.152    -363.484
  H     -167.246     335.457    -359.439
  P     -163.288     334.086    -362.241
  C     -161.365     332.353    -362.154
  O     -162.459     332.876    -362.901
  O     -162.156     335.134    -361.818
  O     -164.314     334.718    -363.117
  H     -162.350     336.007    -362.215
  H     -160.905     331.559    -362.704
  H     -161.720     331.978    -361.217
  H     -160.649     333.129    -361.980

 6  7  8  9  10  11  12  13  14  15  25  28  32  33  34  35 0
 6-311+G(2d,p)
 ****
 36  39  40 0
 6-311+G(2d,p)
 ****
 1  2  3  4  5  16  17  18  19  20  21  22  23  24 0
 3-21G
 ****
 26  27  29  30  31  37  38  41  42  43  44  45  46  47  48 0
 3-21G
 ****


