%nproc=1
%NoSave
%Mem=1900MB
#P OB98/GEN NMR

erre ene a

0 1
  C      313.848     105.978     -80.886
  O      314.127     106.621     -79.661
  H      313.337     105.035     -80.678
  H      314.779     105.765     -81.418
  H      313.197     106.601     -81.505
  P      314.858     108.052     -79.732
  C      312.815     109.141     -78.541
  O      314.216     108.905     -78.528
  C      312.281     109.266     -77.113
  O      312.090     107.944     -76.559
  C      313.221     110.033     -76.178
  O      312.458     110.925     -75.363
  C      313.868     108.949     -75.330
  O      314.295     109.439     -74.062
  C      312.766     107.882     -75.289
  N      313.317     106.548     -75.045
  C      312.860     105.876     -73.908
  O      312.042     106.415     -73.155
  N      313.375     104.641     -73.616
  C      314.313     104.139     -74.362
  N      314.799     102.919     -74.010
  C      314.860     104.833     -75.544
  C      314.317     106.016     -75.828
  O      314.224     108.712     -81.042
  O      316.349     108.004     -79.737
  H      313.497     109.683     -73.546
  H      314.735     109.507     -81.331
  H      315.649     104.382     -76.127
  H      314.657     106.598     -76.678
  H      312.037     108.108     -74.503
  H      314.750     108.558     -75.855
  H      313.977     110.605     -76.715
  H      311.293     109.738     -77.150
  H      314.407     102.479     -73.184
  H      312.321     108.306     -79.047
  H      315.546     102.450     -74.499
  H      312.612     110.068     -79.090
  P      313.020     112.425     -75.251
  C      310.719     113.602     -75.039
  O      311.951     113.281     -74.408
  O      312.881     112.991     -76.740
  O      314.420     112.500     -74.738
  H      313.740     112.949     -77.204
  H      310.111     114.169     -74.366
  H      310.209     112.700     -75.306
  H      310.909     114.178     -75.920

 6  7  8  9  10  11  12  13  14  15  16  26  30  31  32  33  35 0
 6-311+G(2d,p)
 ****
 37  38 0
 6-311+G(2d,p)
 ****
 1  2  3  4  5  17  18  19  20  21  22  23  24  25 0
 3-21G
 ****
 27  28  29  34  36  39  40  41  42  43  44  45  46 0
 3-21G
 ****


