%nproc=1
%NoSave
%Mem=1900MB
#P OB98/GEN NMR

erre ene a

0 1
  C       75.770     171.797    -202.698
  O       76.130     172.342    -203.977
  P       74.937     172.825    -204.935
  C       76.332     172.522    -207.123
  O       75.577     173.399    -206.289
  C       77.428     173.303    -207.853
  O       78.438     173.756    -206.937
  C       78.168     172.466    -208.892
  O       77.399     172.332    -210.072
  C       79.452     173.264    -209.079
  O       79.319     174.242    -210.121
  C       79.649     173.947    -207.702
  N       80.812     173.448    -206.987
  C       82.053     173.666    -207.605
  O       82.104     174.232    -208.701
  N       83.188     173.215    -206.979
  C       83.096     172.586    -205.850
  N       84.256     172.159    -205.281
  C       81.808     172.306    -205.178
  C       80.717     172.759    -205.795
  O       74.381     174.133    -204.199
  O       73.864     171.800    -205.127
  H       80.150     174.758    -210.109
  H       73.422     174.219    -204.349
  H       81.778     171.766    -204.240
  H       79.725     172.597    -205.376
  H       79.769     175.030    -207.829
  H       80.291     172.610    -209.359
  H       78.403     171.475    -208.472
  H       76.970     174.180    -208.334
  H       85.120     172.360    -205.774
  H       75.675     172.033    -207.847
  H       84.299     171.646    -204.403
  H       76.759     171.728    -206.498
  P       77.284     170.883    -210.732
  C       77.326     171.939    -213.080
  O       76.606     171.125    -212.167
  O       76.072     170.227    -209.899
  O       78.504     170.017    -210.710
  H       75.966     169.291    -210.147
  H       76.862     171.854    -214.066
  H       78.362     171.607    -213.145
  H       77.276     172.985    -212.757
  H       76.656     171.518    -202.167
  H       75.152     170.935    -202.839
  H       75.234     172.532    -202.135

 3  4  5  6  7  8  9  10  11  12  13  21  23  27  28  29  30  32 0
 6-311+G(2d,p)
 ****
 34  35 0
 6-311+G(2d,p)
 ****
 1  2  14  15  16  17  18  19  20  22  24  25  26 0
 3-21G
 ****
 31  33  36  37  38  39  40  41  42  43  44  45  46 0
 3-21G
 ****


