%nproc=1
%NoSave
%Mem=1900MB
#P OB98/GEN NMR

erre ene a

0 1
  C     -964.403     920.523    -212.057
  O     -965.526     920.469    -211.194
  H     -964.358     919.586    -212.614
  H     -963.483     920.646    -211.483
  H     -964.515     921.353    -212.757
  P     -965.755     921.751    -210.243
  C     -967.914     922.704    -211.314
  O     -966.504     922.821    -211.185
  C     -968.621     923.761    -210.447
  O     -968.112     925.063    -210.731
  C     -970.133     923.824    -210.649
  O     -970.781     922.840    -209.884
  C     -970.414     925.226    -210.132
  O     -970.495     925.197    -208.688
  C     -969.186     926.022    -210.579
  N     -967.955     930.334    -213.070
  C     -967.773     929.969    -211.790
  N     -968.182     928.821    -211.182
  C     -968.813     928.013    -212.044
  C     -969.083     928.275    -213.380
  C     -968.621     929.485    -213.909
  N     -968.801     929.873    -215.226
  N     -969.763     927.220    -213.959
  C     -969.853     926.321    -213.001
  N     -969.331     926.781    -211.810
  O     -964.562     922.238    -209.507
  O     -966.957     921.213    -209.307
  H     -970.862     926.063    -208.406
  H     -967.604     920.711    -209.844
  H     -967.247     930.678    -211.164
  H     -970.292     925.317    -213.120
  H     -968.859     926.739    -209.807
  H     -971.371     925.632    -210.489
  H     -970.396     923.768    -211.716
  H     -968.368     923.535    -209.396
  H     -968.244     921.705    -211.024
  H     -968.610     930.832    -215.459
  H     -969.397     929.299    -215.797
  H     -968.163     922.847    -212.374
  P     -972.062     922.043    -210.441
  C     -970.752     919.859    -210.035
  O     -971.470     920.653    -210.978
  O     -972.883     922.814    -211.407
  O     -972.870     921.613    -209.132
  H     -973.784     921.372    -209.359
  H     -970.410     918.963    -210.510
  H     -971.396     919.606    -209.218
  H     -969.912     920.412    -209.669

 6  7  8  9  10  11  12  13  14  15  25  28  32  33  34  35 0
 6-311+G(2d,p)
 ****
 36  39  40 0
 6-311+G(2d,p)
 ****
 1  2  3  4  5  16  17  18  19  20  21  22  23  24 0
 3-21G
 ****
 26  27  29  30  31  37  38  41  42  43  44  45  46  47 0
 3-21G
 ****
 48 0
 3-21G
 ****


