%nproc=1
%NoSave
%Mem=1900MB
#P OB98/GEN NMR

erre ene a

0 1
  C     -523.100     -75.176     253.227
  O     -523.207     -74.486     252.001
  H     -522.245     -75.854     253.166
  H     -523.996     -75.769     253.414
  H     -522.933     -74.472     254.046
  P     -524.493     -73.559     251.738
  C     -526.416     -75.144     251.130
  O     -525.754     -74.459     252.187
  C     -527.611     -75.950     251.648
  O     -528.467     -75.093     252.445
  C     -528.474     -76.562     250.538
  O     -528.753     -77.930     250.851
  C     -529.752     -75.734     250.581
  O     -530.863     -76.448     250.043
  C     -529.824     -75.390     252.076
  N     -530.718     -74.273     252.352
  C     -532.082     -74.495     252.143
  O     -532.472     -75.579     251.708
  N     -532.971     -73.475     252.392
  C     -532.525     -72.316     252.769
  N     -533.455     -71.349     252.994
  C     -531.092     -72.025     252.963
  C     -530.250     -73.039     252.748
  O     -524.586     -72.996     250.360
  O     -524.423     -72.440     252.883
  H     -531.691     -76.043     250.393
  H     -524.972     -71.660     252.614
  H     -530.771     -71.039     253.272
  H     -529.183     -72.913     252.871
  H     -530.160     -76.254     252.661
  H     -529.615     -74.820     249.992
  H     -528.008     -76.518     249.554
  H     -527.231     -76.723     252.328
  H     -534.431     -71.592     252.853
  H     -525.697     -75.805     250.633
  H     -533.231     -70.409     253.285
  H     -526.776     -74.402     250.409
  P     -527.851     -79.024     250.097
  C     -529.343     -79.966     248.198
  O     -528.303     -79.070     248.555
  O     -528.379     -80.411     250.697
  O     -526.385     -78.846     250.323
  H     -527.772     -80.737     251.380
  H     -529.536     -79.889     247.148
  H     -530.230     -79.718     248.743
  H     -529.048     -80.967     248.434

 6  7  8  9  10  11  12  13  14  15  16  26  30  31  32  33  35 0
 6-311+G(2d,p)
 ****
 37  38 0
 6-311+G(2d,p)
 ****
 1  2  3  4  5  17  18  19  20  21  22  23  24  25 0
 3-21G
 ****
 27  28  29  34  36  39  40  41  42  43  44  45  46 0
 3-21G
 ****


