%nproc=1
%NoSave
%Mem=1900MB
#P OB98/GEN NMR

erre ene a

0 1
  C      431.552     -40.697     246.951
  O      430.159     -40.731     246.605
  P      429.490     -42.187     246.479
  C      428.358     -41.585     244.221
  O      428.181     -42.059     245.552
  C      427.478     -40.361     243.933
  O      426.083     -40.731     244.076
  C      427.730     -39.165     244.859
  O      427.587     -37.959     244.088
  C      426.554     -39.218     245.823
  O      426.287     -37.954     246.425
  C      425.456     -39.731     244.901
  N      420.756     -38.873     246.565
  C      421.558     -38.092     245.753
  N      421.043     -36.913     245.347
  N      422.763     -38.448     245.373
  C      423.128     -39.671     245.827
  C      422.420     -40.532     246.628
  C      421.113     -40.111     247.078
  O      420.367     -40.733     247.841
  N      423.133     -41.681     246.882
  C      424.276     -41.512     246.238
  N      424.326     -40.304     245.595
  O      428.897     -42.441     247.953
  O      430.454     -43.259     246.090
  H      427.118     -37.657     246.849
  H      429.266     -43.273     248.317
  H      419.847     -38.537     246.843
  H      425.108     -42.207     246.231
  H      425.088     -38.932     244.241
  H      426.784     -39.936     246.625
  H      420.107     -36.606     245.543
  H      428.702     -39.167     245.366
  H      421.606     -36.346     244.711
  H      427.636     -40.073     242.885
  H      428.101     -42.383     243.518
  H      429.415     -41.336     244.076
  P      428.936     -37.376     243.425
  C      428.644     -35.295     244.963
  O      428.887     -35.787     243.661
  O      428.672     -37.535     241.858
  O      430.183     -38.065     243.873
  H      429.518     -37.627     241.381
  H      428.698     -36.071     245.723
  H      427.643     -34.851     244.984
  H      429.380     -34.524     245.187
  H      431.881     -39.680     247.005
  H      432.117     -41.216     246.206
  H      431.695     -41.169     247.901

 3  4  5  6  7  8  9  10  11  12  23  26  30  31  33  0
 6-311+G(2d,p)
 ****
 35  36  37  38 0
 6-311+G(2d,p)
 ****
 1  2  13  14  15  16  17  18  19  20  21  22  24  25  27  28  29 0
 3-21G
 ****
 32  34  39  40  41  42  43  44  45  46  47  48  49 0
 3-21G
 ****


