%nproc=1
%NoSave
%Mem=1900MB
#P OB98/GEN NMR

erre ene a

0 1
  C     -102.982     -21.898    -121.794
  O     -101.935     -21.629    -122.710
  P     -100.583     -21.000    -122.108
  C     -101.067     -19.070    -123.799
  O     -100.586     -19.453    -122.521
  C     -102.161     -18.012    -123.641
  O     -103.228     -18.514    -122.812
  C     -101.690     -16.719    -122.990
  O     -101.056     -15.885    -123.943
  C     -103.000     -16.155    -122.452
  O     -103.736     -15.486    -123.493
  C     -103.728     -17.424    -121.990
  N     -105.219     -16.334    -117.285
  C     -105.503     -15.697    -118.479
  N     -106.343     -14.641    -118.409
  N     -105.012     -16.061    -119.632
  C     -104.177     -17.123    -119.548
  C     -103.807     -17.828    -118.426
  C     -104.398     -17.446    -117.165
  O     -104.255     -18.038    -116.099
  N     -102.922     -18.829    -118.732
  C     -102.785     -18.747    -120.040
  N     -103.540     -17.742    -120.587
  O      -99.445     -21.648    -123.022
  O     -100.362     -21.248    -120.649
  H     -103.266     -14.671    -123.746
  H      -99.034     -22.412    -122.573
  H     -105.640     -16.018    -116.430
  H     -102.170     -19.402    -120.638
  H     -104.810     -17.364    -122.160
  H     -102.837     -15.417    -121.661
  H     -106.740     -14.287    -117.552
  H     -101.012     -16.936    -122.155
  H     -106.560     -14.157    -119.272
  H     -102.578     -17.810    -124.636
  H     -101.484     -19.947    -124.303
  H     -100.236     -18.680    -124.395
  P      -99.458     -15.763    -123.873
  C      -99.667     -13.379    -122.868
  O      -99.116     -14.676    -122.750
  O      -99.086     -15.028    -125.246
  O      -98.743     -17.065    -123.743
  H      -98.239     -15.375    -125.583
  H      -99.800     -12.962    -121.867
  H     -100.633     -13.394    -123.379
  H      -98.974     -12.745    -123.427
  H     -103.818     -22.311    -122.319
  H     -103.277     -20.989    -121.312
  H     -102.642     -22.597    -121.059

 3  4  5  6  7  8  9  10  11  12  23  26  30  31 0
 6-311+G(2d,p)
 ****
 33  35  36  37  38 0
 6-311+G(2d,p)
 ****
 1  2  13  14  15  16  17  18  19  20  21  22  24  25 0
 3-21G
 ****
 27  28  29  32  34  39  40  41  42  43  44  45  46  47  48  49 0
 3-21G
 ****


