%nproc=1
%NoSave
%Mem=1900MB
#P OB98/GEN NMR

erre ene a

0 1
  C       -6.746      67.010     -37.460
  O       -6.063      66.675     -36.269
  H       -6.324      67.939     -37.854
  H       -7.808      67.169     -37.257
  H       -6.624      66.225     -38.212
  P       -6.396      65.280     -35.553
  C       -7.612      66.413     -33.583
  O       -7.720      65.511     -34.679
  C       -9.005      66.811     -33.100
  O       -9.733      67.472     -34.160
  C       -9.871      65.630     -32.672
  O       -9.471      65.145     -31.406
  C      -11.251      66.269     -32.717
  O      -11.491      67.064     -31.545
  C      -11.135      67.171     -33.968
  N      -11.711      66.555     -35.167
  C      -13.057      66.809     -35.402
  O      -13.751      67.504     -34.661
  N      -13.597      66.197     -36.502
  C      -12.957      65.305     -37.312
  O      -13.534      64.615     -38.148
  C      -11.518      65.132     -37.060
  C      -10.971      65.744     -36.007
  O       -5.263      64.638     -34.827
  O       -6.919      64.356     -36.755
  H       -6.202      63.756     -37.036
  H      -10.644      67.505     -31.334
  H      -14.585      66.337     -36.655
  H      -10.959      64.482     -37.723
  H       -9.919      65.606     -35.786
  H      -11.644      68.129     -33.800
  H      -12.050      65.526     -32.769
  H       -9.824      64.837     -33.427
  H       -8.888      67.526     -32.273
  H       -7.073      67.307     -33.919
  H       -7.043      65.934     -32.780
  P       -9.684      63.611     -31.004
  C      -11.418      63.885     -29.135
  O      -11.184      63.441     -30.464
  O       -8.635      63.041     -30.104
  O       -9.716      62.836     -32.405
  H       -9.063      62.108     -32.382
  H      -12.445      63.725     -28.881
  H      -11.191      64.928     -29.062
  H      -10.794      63.336     -28.461

 6  7  8  9  10  11  12  13  14  15  16  27  31  32  33  34  35 0
 6-311+G(2d,p)
 ****
 36  37 0
 6-311+G(2d,p)
 ****
 1  2  3  4  5  17  18  19  20  21  22  23  24  25 0
 3-21G
 ****
 26  28  29  30  38  39  40  41  42  43  44  45 0
 3-21G
 ****


