%nproc=1
%NoSave
%Mem=1900MB
#P OB98/GEN NMR

erre ene a

0 1
  C      826.347     578.476     217.654
  O      827.245     579.013     218.613
  H      826.351     577.390     217.748
  H      826.676     578.735     216.642
  H      825.346     578.849     217.835
  P      827.476     580.601     218.560
  C      829.768     580.226     219.778
  O      829.084     580.753     218.643
  C      831.178     579.808     219.392
  O      831.146     578.598     218.598
  C      831.935     580.824     218.542
  O      832.434     581.923     219.278
  C      833.043     579.932     217.991
  O      834.019     579.700     219.028
  C      832.250     578.649     217.652
  N      831.746     578.628     216.280
  C      832.707     578.556     215.257
  O      833.904     578.534     215.523
  N      832.282     578.583     213.947
  C      831.003     578.628     213.675
  N      830.644     578.645     212.363
  C      829.956     578.690     214.714
  C      830.404     578.690     215.982
  O      827.004     581.099     220.007
  O      826.848     581.312     217.418
  H      833.521     579.397     219.819
  H      827.242     582.052     220.136
  H      828.910     578.752     214.448
  H      829.688     578.726     216.809
  H      832.870     577.759     217.802
  H      833.574     580.378     217.145
  H      831.310     581.171     217.699
  H      831.726     579.587     220.325
  H      831.391     578.670     211.666
  H      829.207     579.372     220.148
  H      829.698     578.830     212.051
  H      829.810     580.990     220.558
  P      832.794     583.258     218.471
  C      833.739     584.361     220.652
  O      833.965     583.998     219.290
  O      831.510     584.208     218.748
  O      833.042     583.082     216.998
  H      831.315     584.770     217.969
  H      834.612     584.840     221.043
  H      833.527     583.482     221.225
  H      832.908     585.033     220.709

 6  7  8  9  10  11  12  13  14  15  16  26  30  31  32  33  35 0
 6-311+G(2d,p)
 ****
 37  38 0
 6-311+G(2d,p)
 ****
 1  2  3  4  5  17  18  19  20  21  22  23  24  25 0
 3-21G
 ****
 27  28  29  34  36  39  40  41  42  43  44  45  46 0
 3-21G
 ****


