%nproc=1
%NoSave
%Mem=1900MB
#P OB98/GEN NMR

erre ene a

0 1
  C      -36.488     -50.151     215.861
  O      -37.659     -49.349     215.852
  P      -39.053     -49.930     216.391
  C      -39.951     -50.194     213.995
  O      -39.648     -50.854     215.218
  C      -41.231     -50.759     213.380
  O      -40.984     -52.124     212.962
  C      -42.411     -50.784     214.349
  O      -43.611     -50.506     213.621
  C      -42.470     -52.223     214.835
  O      -43.798     -52.579     215.248
  C      -41.953     -52.975     213.599
  N      -42.607     -58.030     214.282
  C      -43.466     -57.055     213.897
  N      -43.231     -55.729     213.764
  C      -41.938     -55.454     214.016
  C      -40.949     -56.342     214.412
  C      -41.326     -57.689     214.548
  N      -40.444     -58.681     214.923
  N      -39.746     -55.679     214.609
  C      -40.009     -54.424     214.317
  N      -41.317     -54.238     213.944
  O      -40.004     -48.909     216.917
  O      -38.639     -50.992     217.514
  H      -44.063     -51.944     215.939
  H      -39.268     -50.961     218.263
  H      -44.476     -57.381     213.675
  H      -39.298     -53.610     214.369
  H      -42.757     -53.178     212.882
  H      -41.803     -52.351     215.691
  H      -42.295     -50.072     215.175
  H      -41.473     -50.178     212.482
  H      -39.120     -50.353     213.301
  H      -40.775     -59.635     214.878
  H      -39.458     -58.458     214.955
  H      -40.047     -49.119     214.175
  P      -44.726     -49.650     214.407
  C      -46.240     -51.711     214.913
  O      -45.401     -50.693     215.418
  O      -45.633     -48.916     213.475
  O      -43.806     -48.708     215.328
  H      -42.927     -49.114     215.493
  H      -46.634     -52.292     215.755
  H      -45.668     -52.379     214.267
  H      -47.078     -51.278     214.357
  H      -35.668     -49.589     215.465
  H      -36.647     -51.022     215.260
  H      -36.266     -50.447     216.865

 3  4  5  6  7  8  9  10  11  12  22  25  29  30  31  32 0
 6-311+G(2d,p)
 ****
 33  36  37 0
 6-311+G(2d,p)
 ****
 1  2  13  14  15  16  17  18  19  20  21  23  24  26 0
 3-21G
 ****
 27  28  34  35  38  39  40  41  42  43  44  45  46  47  48 0
 3-21G
 ****


