%nproc=1
%NoSave
%Mem=1900MB
#P OB98/GEN NMR

erre ene a

0 1
  C     -132.349      60.385    -155.402
  O     -132.515      58.977    -155.436
  P     -133.392      58.359    -156.632
  C     -135.931      57.864    -156.865
  O     -134.926      58.706    -156.317
  C     -137.220      58.647    -157.122
  O     -136.949      59.690    -158.100
  C     -138.383      57.800    -157.663
  O     -139.585      58.352    -157.113
  C     -138.294      58.058    -159.158
  O     -139.467      57.715    -159.873
  C     -137.922      59.538    -159.158
  N     -138.926      62.072    -163.482
  C     -139.667      61.861    -162.370
  N     -139.329      61.181    -161.253
  C     -138.077      60.702    -161.351
  C     -137.211      60.821    -162.426
  C     -137.681      61.546    -163.533
  N     -136.927      61.753    -164.670
  N     -136.021      60.173    -162.173
  C     -136.164      59.668    -160.964
  N     -137.379      59.980    -160.421
  O     -133.308      56.785    -156.363
  O     -132.924      58.719    -158.008
  H     -139.638      56.755    -159.794
  H     -133.235      56.288    -157.199
  H     -140.663      62.294    -162.378
  H     -135.430      59.065    -160.447
  H     -138.781      60.176    -158.918
  H     -137.477      57.454    -159.573
  H     -138.316      56.744    -157.388
  H     -137.514      59.143    -156.188
  H     -136.154      57.058    -156.159
  H     -137.421      62.108    -165.477
  H     -136.093      61.189    -164.780
  H     -135.558      57.408    -157.789
  P     -140.964      57.553    -157.306
  C     -142.510      57.183    -159.325
  O     -141.408      57.904    -158.810
  O     -141.966      58.466    -156.453
  O     -140.945      56.116    -156.915
  H     -141.896      59.405    -156.703
  H     -142.763      57.588    -160.308
  H     -143.376      57.291    -158.665
  H     -142.248      56.128    -159.433
  H     -131.748      60.653    -154.559
  H     -133.307      60.855    -155.321
  H     -131.867      60.709    -156.301

 3  4  5  6  7  8  9  10  11  12  22  25  29  30  31  32 0
 6-311+G(2d,p)
 ****
 33  36  37 0
 6-311+G(2d,p)
 ****
 1  2  13  14  15  16  17  18  19  20  21  23  24  26 0
 3-21G
 ****
 27  28  34  35  38  39  40  41  42  43  44  45  46  47  48 0
 3-21G
 ****


