%nproc=1
%NoSave
%Mem=1900MB
#P OB98/GEN NMR

erre ene a

0 1
  C      565.212    -408.743     193.147
  O      563.940    -409.089     193.662
  P      563.816    -409.913     195.031
  C      562.838    -412.050     193.988
  O      563.939    -411.478     194.691
  C      562.921    -413.575     194.019
  O      564.077    -414.044     193.291
  C      563.082    -414.155     195.420
  O      561.888    -414.082     196.171
  C      563.549    -415.570     195.098
  O      562.437    -416.411     194.746
  C      564.445    -415.324     193.864
  N      565.869    -415.374     194.189
  C      566.421    -416.650     194.320
  O      565.704    -417.654     194.238
  N      567.770    -416.757     194.545
  C      568.470    -415.686     194.750
  N      569.817    -415.852     194.906
  C      567.895    -414.333     194.780
  C      566.599    -414.246     194.474
  O      562.651    -409.547     195.891
  O      565.203    -409.608     195.788
  H      565.002    -409.330     196.703
  H      562.816    -417.279     194.502
  H      568.511    -413.479     195.025
  H      566.091    -413.287     194.451
  H      564.235    -416.068     193.088
  H      564.064    -416.045     195.940
  H      563.876    -413.618     195.956
  H      562.023    -413.976     193.540
  H      570.184    -416.793     194.860
  H      562.866    -411.707     192.953
  H      570.479    -415.094     194.747
  H      561.908    -411.708     194.445
  P      561.989    -414.372     197.740
  C      560.142    -416.191     197.672
  O      561.485    -415.873     197.985
  O      560.815    -413.471     198.368
  O      563.313    -414.036     198.352
  H      561.101    -413.121     199.222
  H      560.061    -417.277     197.555
  H      559.820    -415.708     196.748
  H      559.496    -415.870     198.495
  H      565.091    -408.199     192.233
  H      565.775    -409.633     192.960
  H      565.731    -408.135     193.858

 3  4  5  6  7  8  9  10  11  12  13  24  27  28  29  30  32 0
 6-311+G(2d,p)
 ****
 34  35 0
 6-311+G(2d,p)
 ****
 1  2  14  15  16  17  18  19  20  21  22  23  25  26 0
 3-21G
 ****
 31  33  36  37  38  39  40  41  42  43  44  45  46 0
 3-21G
 ****


