%nproc=1
%NoSave
%Mem=1900MB
#P OB98/GEN NMR

erre ene a

0 1
  C      -58.035     241.245    -103.511
  O      -58.928     241.074    -104.595
  H      -58.247     240.482    -102.758
  H      -58.174     242.231    -103.060
  H      -57.002     241.131    -103.851
  P      -58.815     242.146    -105.784
  C      -60.916     243.374    -104.888
  O      -60.292     242.742    -105.996
  C      -62.220     244.042    -105.317
  O      -61.954     245.234    -106.085
  C      -63.125     243.160    -106.170
  O      -63.910     242.301    -105.358
  C      -63.957     244.205    -106.898
  O      -65.019     244.700    -106.053
  C      -62.922     245.307    -107.171
  N      -63.199     246.433    -112.086
  C      -64.118     246.623    -111.075
  N      -65.303     247.174    -111.426
  N      -63.907     246.297    -109.827
  C      -62.704     245.706    -109.627
  C      -61.708     245.458    -110.546
  C      -61.937     245.876    -111.913
  O      -61.128     245.810    -112.839
  N      -60.626     244.856    -109.956
  C      -60.982     244.709    -108.693
  N      -62.236     245.205    -108.445
  O      -58.594     241.237    -107.086
  O      -57.725     243.152    -105.638
  H      -65.498     245.407    -106.522
  H      -57.967     241.690    -107.682
  H      -63.402     246.734    -113.023
  H      -60.366     244.266    -107.920
  H      -63.371     246.308    -107.136
  H      -64.437     243.791    -107.785
  H      -65.628     247.174    -112.383
  H      -62.542     242.588    -106.903
  H      -66.002     247.243    -110.697
  H      -62.745     244.358    -104.405
  H      -60.236     244.131    -104.485
  H      -61.119     242.627    -104.112
  P      -64.208     240.820    -105.891
  C      -66.689     240.825    -106.665
  O      -65.763     240.506    -105.635
  O      -63.459     239.896    -104.815
  O      -63.716     240.540    -107.270
  H      -62.639     239.538    -105.204
  H      -67.677     240.561    -106.351
  H      -66.439     240.280    -107.551
  H      -66.648     241.875    -106.869

 6  7  8  9  10  11  12  13  14  15  26  29  33  34 0
 6-311+G(2d,p)
 ****
 36  38  39  40  41 0
 6-311+G(2d,p)
 ****
 1  2  3  4  5  16  17  18  19  20  21  22  23  24  25 0
 3-21G
 ****
 27  28  30  31  32  35  37  42  43  44  45  46  47 0
 3-21G
 ****
 48  49 0
 3-21G
 ****


