%nproc=1
%NoSave
%Mem=1900MB
#P OB98/GEN NMR

erre ene a

0 1
  C     -127.707     167.223     -58.716
  O     -128.715     167.507     -59.672
  P     -129.740     168.730     -59.478
  C     -129.653     169.257     -62.010
  O     -130.461     168.909     -60.899
  C     -130.526     169.703     -63.184
  O     -131.355     168.588     -63.598
  C     -131.456     170.881     -62.867
  O     -131.560     171.675     -64.055
  C     -132.778     170.195     -62.564
  O     -133.890     171.062     -62.722
  C     -132.728     169.029     -63.555
  N     -133.618     167.934     -63.178
  C     -134.753     167.722     -63.964
  O     -135.001     168.444     -64.926
  N     -135.586     166.680     -63.643
  C     -135.359     165.971     -62.578
  N     -136.182     164.918     -62.334
  C     -134.233     166.236     -61.661
  C     -133.403     167.205     -62.032
  O     -129.130     169.974     -58.927
  O     -130.914     168.123     -58.583
  H     -133.884     171.406     -63.636
  H     -130.717     168.162     -57.613
  H     -134.100     165.635     -60.772
  H     -132.537     167.450     -61.434
  H     -132.977     169.378     -64.565
  H     -132.774     169.837     -61.529
  H     -131.088     171.504     -62.046
  H     -129.869     169.954     -64.026
  H     -136.831     164.666     -63.072
  H     -129.083     168.374     -62.311
  H     -135.885     164.150     -61.740
  H     -128.945     170.043     -61.722
  P     -131.894     173.238     -63.898
  C     -130.127     174.056     -65.613
  O     -131.491     173.971     -65.266
  O     -130.722     173.719     -62.906
  O     -133.225     173.580     -63.313
  H     -131.024     174.511     -62.421
  H     -130.044     174.577     -66.571
  H     -129.695     173.055     -65.723
  H     -129.572     174.619     -64.858
  H     -127.140     166.375     -59.037
  H     -128.161     167.011     -57.771
  H     -127.059     168.069     -58.619

 3  4  5  6  7  8  9  10  11  12  13  23  27  28  29  30  32 0
 6-311+G(2d,p)
 ****
 34  35 0
 6-311+G(2d,p)
 ****
 1  2  14  15  16  17  18  19  20  21  22  24  25  26 0
 3-21G
 ****
 31  33  36  37  38  39  40  41  42  43  44  45  46 0
 3-21G
 ****


