%nproc=1
%NoSave
%Mem=1900MB
#P OB98/GEN NMR

erre ene a

0 1
  C     -184.596    -896.210     283.608
  O     -185.362    -896.450     284.770
  H     -185.207    -895.720     282.845
  H     -183.763    -895.550     283.870
  H     -184.189    -897.150     283.214
  P     -186.630    -897.420     284.610
  C     -188.570    -897.440     282.878
  O     -187.632    -896.660     283.605
  C     -189.526    -896.520     282.122
  O     -188.803    -895.730     281.150
  C     -190.609    -897.240     281.331
  O     -191.699    -897.640     282.157
  C     -191.025    -896.160     280.361
  O     -191.869    -895.200     281.031
  C     -189.674    -895.520     280.013
  N     -186.395    -894.680     276.170
  C     -186.818    -893.880     277.180
  N     -187.699    -894.180     278.161
  C     -188.151    -895.440     278.033
  C     -187.808    -896.360     277.045
  C     -186.882    -895.940     276.079
  N     -186.460    -896.730     275.041
  N     -188.512    -897.530     277.211
  C     -189.223    -897.340     278.312
  N     -189.049    -896.100     278.826
  O     -187.377    -897.300     286.019
  O     -186.333    -898.830     284.237
  H     -192.584    -895.700     281.463
  H     -187.965    -898.070     286.158
  H     -186.401    -892.890     277.203
  H     -189.890    -898.080     278.758
  H     -189.748    -894.430     279.847
  H     -191.584    -896.540     279.509
  H     -190.197    -898.090     280.770
  H     -189.980    -895.820     282.845
  H     -189.137    -898.060     283.576
  H     -185.941    -896.280     274.310
  H     -186.930    -897.620     274.884
  H     -188.037    -898.080     282.176
  P     -192.729    -898.720     281.550
  C     -194.709    -898.590     279.863
  O     -193.729    -897.890     280.612
  O     -193.632    -899.090     282.808
  O     -192.086    -899.900     280.914
  H     -193.997    -900.000     282.705
  H     -195.289    -897.893     279.295
  H     -195.350    -899.128     280.530
  H     -194.227    -899.277     279.200

 6  7  8  9  10  11  12  13  14  15  25  28  32  33  34  35 0
 6-311+G(2d,p)
 ****
 36  39  40 0
 6-311+G(2d,p)
 ****
 1  2  3  4  5  16  17  18  19  20  21  22  23  24 0
 3-21G
 ****
 26  27  29  30  31  37  38  41  42  43  44  45  46  47 0
 3-21G
 ****
 48 0
 3-21G
 ****


