%nproc=1
%NoSave
%Mem=1900MB
#P OB98/GEN NMR

erre ene a

0 1
  C     -225.943     751.789    -569.114
  O     -226.335     752.587    -568.009
  P     -225.232     753.220    -567.033
  C     -224.909     755.258    -568.577
  O     -224.295     754.125    -567.972
  C     -224.474     756.553    -567.886
  O     -225.215     756.746    -566.660
  C     -223.009     756.576    -567.484
  O     -222.190     756.834    -568.618
  C     -223.007     757.685    -566.443
  O     -222.943     758.981    -567.054
  C     -224.368     757.469    -565.745
  N     -224.246     756.793    -564.467
  C     -224.272     757.613    -563.335
  O     -224.369     758.831    -563.458
  N     -224.154     757.036    -562.095
  C     -223.980     755.743    -561.995
  N     -223.859     755.235    -560.741
  C     -223.912     754.857    -563.165
  C     -224.045     755.433    -564.360
  O     -224.520     752.243    -566.161
  O     -226.070     754.316    -566.207
  H     -222.065     759.036    -567.477
  H     -226.651     753.885    -565.533
  H     -223.754     753.789    -563.036
  H     -224.002     754.850    -565.274
  H     -224.867     758.442    -565.570
  H     -222.151     757.606    -565.755
  H     -222.729     755.627    -567.016
  H     -224.701     757.391    -568.558
  H     -223.875     755.881    -559.964
  H     -225.996     755.150    -568.492
  H     -223.685     754.263    -560.561
  H     -224.652     755.285    -569.642
  P     -220.634     756.434    -568.590
  C     -221.357     754.222    -569.676
  O     -220.542     754.842    -568.698
  O     -219.837     757.045    -567.485
  O     -220.103     756.924    -570.011
  H     -219.239     757.372    -569.888
  H     -220.970     753.219    -569.881
  H     -221.355     754.802    -570.604
  H     -222.385     754.137    -569.300
  H     -226.813     751.460    -569.643
  H     -225.395     750.939    -568.764
  H     -225.325     752.366    -569.769

 3  4  5  6  7  8  9  10  11  12  13  23  27  28  29  30  32 0
 6-311+G(2d,p)
 ****
 34  35 0
 6-311+G(2d,p)
 ****
 1  2  14  15  16  17  18  19  20  21  22  24  25  26 0
 3-21G
 ****
 31  33  36  37  38  39  40  41  42  43  44  45  46 0
 3-21G
 ****


