%nproc=1
%NoSave
%Mem=1900MB
#P OB98/GEN NMR

erre ene a

0 1
  C     -597.477    -440.873    -291.697
  O     -597.940    -439.922    -290.758
  H     -597.600    -440.468    -292.706
  H     -598.054    -441.803    -291.631
  H     -596.417    -441.083    -291.532
  P     -598.010    -440.351    -289.216
  C     -595.720    -439.301    -288.631
  O     -596.486    -440.491    -288.743
  C     -595.877    -438.707    -287.233
  O     -595.476    -439.660    -286.234
  C     -595.004    -437.471    -287.009
  O     -595.554    -436.341    -287.653
  C     -594.986    -437.419    -285.490
  O     -596.183    -436.829    -284.972
  C     -594.911    -438.920    -285.129
  N     -593.537    -439.366    -284.848
  C     -593.242    -439.602    -283.507
  O     -594.095    -439.446    -282.637
  N     -591.963    -440.000    -283.181
  C     -591.074    -440.151    -284.113
  N     -589.833    -440.544    -283.727
  C     -591.364    -439.919    -285.542
  C     -592.600    -439.528    -285.838
  O     -598.876    -441.526    -288.881
  O     -598.494    -439.016    -288.476
  H     -596.270    -435.963    -285.408
  H     -599.464    -438.983    -288.430
  H     -590.589    -440.067    -286.291
  H     -592.886    -439.335    -286.865
  H     -595.528    -439.135    -284.250
  H     -594.141    -436.836    -285.123
  H     -593.983    -437.659    -287.353
  H     -596.938    -438.470    -287.073
  H     -589.677    -440.675    -282.736
  H     -596.090    -438.596    -289.388
  H     -589.092    -440.774    -284.371
  H     -594.657    -439.496    -288.833
  P     -594.616    -435.341    -288.486
  C     -596.021    -435.848    -290.592
  O     -594.719    -435.841    -290.016
  O     -593.230    -435.191    -287.965
  O     -595.457    -433.983    -288.502
  H     -595.421    -433.521    -287.624
  H     -595.962    -436.196    -291.602
  H     -596.422    -434.856    -290.579
  H     -596.657    -436.497    -290.027

 6  7  8  9  10  11  12  13  14  15  16  26  30  31  32  33  35 0
 6-311+G(2d,p)
 ****
 37  38 0
 6-311+G(2d,p)
 ****
 1  2  3  4  5  17  18  19  20  21  22  23  24  25 0
 3-21G
 ****
 27  28  29  34  36  39  40  41  42  43  44  45  46 0
 3-21G
 ****


