%nproc=1
%NoSave
%Mem=1900MB
#P OB98/GEN NMR

erre ene a

0 1
  C      113.451     -42.917    -245.441
  O      114.274     -43.952    -244.943
  H      112.442     -43.313    -245.582
  H      113.823     -42.562    -246.405
  H      113.402     -42.088    -244.730
  P      115.817     -43.628    -244.651
  C      117.653     -44.855    -243.293
  O      116.343     -44.912    -243.837
  C      117.828     -45.929    -242.223
  O      117.118     -45.586    -241.012
  C      117.288     -47.307    -242.605
  O      118.088     -47.994    -243.548
  C      117.300     -47.975    -241.240
  O      118.648     -48.333    -240.889
  C      116.771     -46.831    -240.345
  N      115.325     -46.909    -240.126
  C      114.905     -47.516    -238.937
  O      115.725     -47.965    -238.136
  N      113.557     -47.635    -238.695
  C      112.707     -47.205    -239.575
  N      111.381     -47.355    -239.287
  C      113.104     -46.578    -240.848
  C      114.415     -46.458    -241.056
  O      116.100     -42.305    -244.013
  O      116.544     -43.824    -246.062
  H      118.969     -48.938    -241.583
  H      117.504     -43.624    -245.939
  H      112.357     -46.263    -241.560
  H      114.785     -46.012    -241.971
  H      117.277     -46.827    -239.371
  H      116.704     -48.888    -241.204
  H      116.248     -47.238    -242.949
  H      118.896     -45.973    -241.971
  H      111.139     -47.791    -238.406
  H      117.805     -43.856    -242.874
  H      110.653     -47.118    -239.945
  H      118.392     -45.029    -244.080
  P      117.389     -49.199    -244.355
  C      117.393     -49.974    -246.849
  O      117.848     -49.041    -245.881
  O      115.848     -48.782    -244.363
  O      117.617     -50.560    -243.779
  H      115.358     -49.252    -243.665
  H      117.794     -49.718    -247.807
  H      116.324     -49.951    -246.892
  H      117.717     -50.957    -246.577

 6  7  8  9  10  11  12  13  14  15  16  26  30  31  32  33  35 0
 6-311+G(2d,p)
 ****
 37  38 0
 6-311+G(2d,p)
 ****
 1  2  3  4  5  17  18  19  20  21  22  23  24  25 0
 3-21G
 ****
 27  28  29  34  36  39  40  41  42  43  44  45  46 0
 3-21G
 ****


