%nproc=1
%NoSave
%Mem=1900MB
#P OB98/GEN NMR

erre ene a

0 1
  C      -43.472      14.605     -14.130
  O      -44.250      13.699     -14.883
  H      -42.649      14.057     -13.664
  H      -44.081      15.059     -13.345
  H      -43.058      15.382     -14.778
  P      -45.509      14.300     -15.679
  C      -44.046      14.908     -17.744
  O      -45.129      14.141     -17.235
  C      -43.331      14.144     -18.862
  O      -42.800      12.908     -18.327
  C      -44.245      13.792     -20.035
  O      -43.553      14.031     -21.262
  C      -44.525      12.311     -19.856
  O      -44.836      11.666     -21.090
  C      -43.247      11.825     -19.164
  N      -43.479      10.612     -18.384
  C      -42.886       9.437     -18.855
  O      -42.216       9.453     -19.889
  N      -43.107       8.265     -18.178
  C      -43.902       8.253     -17.154
  N      -44.098       7.057     -16.539
  C      -44.587       9.460     -16.651
  C      -44.329      10.592     -17.302
  O      -45.381      15.872     -15.419
  O      -46.834      13.728     -15.301
  H      -44.154      11.924     -21.748
  H      -46.207      16.349     -15.673
  H      -45.253       9.397     -15.804
  H      -44.790      11.527     -17.004
  H      -42.460      11.622     -19.903
  H      -45.384      12.182     -19.186
  H      -45.173      14.363     -20.038
  H      -42.471      14.738     -19.191
  H      -43.620       6.250     -16.919
  H      -43.343      15.113     -16.932
  H      -44.719       6.926     -15.753
  H      -44.430      15.855     -18.136
  P      -44.185      15.158     -22.216
  C      -43.482      17.191     -20.771
  O      -43.335      16.503     -22.004
  O      -45.594      15.480     -21.531
  O      -44.328      14.725     -23.638
  H      -46.313      15.010     -21.993
  H      -42.860      18.062     -20.772
  H      -43.193      16.547     -19.967
  H      -44.504      17.483     -20.645

 6  7  8  9  10  11  12  13  14  15  16  26  30  31  32  33  35 0
 6-311+G(2d,p)
 ****
 37  38 0
 6-311+G(2d,p)
 ****
 1  2  3  4  5  17  18  19  20  21  22  23  24  25 0
 3-21G
 ****
 27  28  29  34  36  39  40  41  42  43  44  45  46 0
 3-21G
 ****


