%nproc=1
%NoSave
%Mem=1900MB
#P OB98/GEN NMR

erre ene a

0 1
  C       -5.499      -0.297      28.277
  O       -6.615      -0.132      29.128
  H       -5.040       0.681      28.109
  H       -5.806      -0.708      27.312
  H       -4.760      -0.954      28.743
  P       -7.514      -1.413      29.466
  C       -9.306      -0.205      28.045
  O       -9.034      -0.979      29.208
  C      -10.795       0.123      27.954
  O      -11.031       1.096      26.917
  C      -11.676      -1.073      27.609
  O      -11.829      -1.918      28.730
  C      -12.938      -0.364      27.147
  O      -13.710       0.096      28.266
  C      -12.343       0.833      26.365
  N      -12.263       0.606      24.926
  C      -13.481       0.585      24.238
  O      -14.540       0.737      24.845
  N      -13.462       0.373      22.881
  C      -12.333       0.240      22.260
  N      -12.383       0.037      20.917
  C      -11.026       0.290      22.943
  C      -11.065       0.462      24.262
  O       -7.272      -2.059      30.795
  O       -7.216      -2.422      28.258
  H      -14.571       0.383      27.903
  H       -6.503      -3.042      28.499
  H      -10.108       0.183      22.384
  H      -10.148       0.511      24.841
  H      -12.943       1.736      26.533
  H      -13.585      -1.013      26.557
  H      -11.256      -1.620      26.758
  H      -11.100       0.575      28.906
  H      -13.304       0.030      20.489
  H       -8.999      -0.803      27.181
  H      -11.576       0.083      20.314
  H       -8.717       0.719      28.050
  P      -11.220      -3.401      28.753
  C      -13.489      -4.188      27.835
  O      -12.484      -4.390      28.816
  O      -10.180      -3.645      29.792
  O      -10.691      -3.614      27.259
  H       -9.833      -3.138      27.126
  H      -14.274      -4.901      27.977
  H      -13.066      -4.313      26.860
  H      -13.885      -3.198      27.928

 6  7  8  9  10  11  12  13  14  15  16  26  30  31  32  33  35 0
 6-311+G(2d,p)
 ****
 37  38 0
 6-311+G(2d,p)
 ****
 1  2  3  4  5  17  18  19  20  21  22  23  24  25 0
 3-21G
 ****
 27  28  29  34  36  39  40  41  42  43  44  45  46 0
 3-21G
 ****


