%nproc=1
%NoSave
%Mem=1900MB
#P OB98/GEN NMR

erre ene a

0 1
  C      232.544     441.864    -108.933
  O      231.389     441.677    -109.726
  H      232.241     442.244    -107.955
  H      233.207     442.594    -109.407
  H      233.072     440.914    -108.796
  P      231.596     440.953    -111.144
  C      230.733     438.664    -110.188
  O      231.773     439.394    -110.813
  C      229.786     438.069    -111.233
  O      230.511     437.071    -111.998
  C      228.553     437.394    -110.631
  O      227.446     437.613    -111.508
  C      228.920     435.920    -110.647
  O      227.770     435.078    -110.630
  C      229.772     435.836    -111.924
  N      230.661     434.675    -111.925
  C      230.085     433.443    -112.236
  O      228.881     433.363    -112.478
  N      230.872     432.320    -112.225
  C      232.117     432.408    -111.865
  N      232.837     431.256    -111.853
  C      232.757     433.682    -111.487
  C      231.981     434.766    -111.549
  O      233.071     441.428    -111.541
  O      230.549     441.272    -112.162
  H      227.142     435.421    -109.961
  H      233.705     441.379    -110.807
  H      233.793     433.707    -111.189
  H      232.371     435.742    -111.295
  H      229.130     435.776    -112.811
  H      229.528     435.674    -109.768
  H      228.312     437.760    -109.633
  H      229.500     438.860    -111.934
  H      232.353     430.401    -112.097
  H      230.164     439.314    -109.512
  H      233.793     431.195    -111.539
  H      231.189     437.869    -109.589
  P      226.607     438.973    -111.395
  C      227.460     440.281    -113.456
  O      227.453     440.171    -112.038
  O      226.013     439.257    -110.056
  O      225.442     438.757    -112.483
  H      224.611     439.102    -112.101
  H      228.060     441.118    -113.746
  H      226.459     440.420    -113.808
  H      227.866     439.387    -113.881

 6  7  8  9  10  11  12  13  14  15  16  26  30  31  32  33  35 0
 6-311+G(2d,p)
 ****
 37  38 0
 6-311+G(2d,p)
 ****
 1  2  3  4  5  17  18  19  20  21  22  23  24  25 0
 3-21G
 ****
 27  28  29  34  36  39  40  41  42  43  44  45  46 0
 3-21G
 ****


