%nproc=1
%NoSave
%Mem=1900MB
#P OB98/GEN NMR

erre ene a

0 1
  C      -23.572     -93.406      -4.615
  O      -23.399     -92.225      -3.860
  H      -23.257     -94.260      -4.010
  H      -22.960     -93.373      -5.520
  H      -24.625     -93.530      -4.881
  P      -23.706     -90.837      -4.603
  C      -26.289     -91.022      -4.392
  O      -25.162     -90.972      -5.257
  C      -27.426     -90.198      -4.988
  O      -27.048     -88.801      -5.031
  C      -27.775     -90.567      -6.422
  O      -28.575     -91.734      -6.509
  C      -28.520     -89.320      -6.867
  O      -29.902     -89.364      -6.486
  C      -27.772     -88.199      -6.122
  N      -26.895     -87.448      -7.016
  C      -27.405     -86.243      -7.490
  O      -28.517     -85.814      -7.189
  N      -26.603     -85.557      -8.360
  C      -25.394     -85.974      -8.832
  O      -24.751     -85.336      -9.655
  C      -24.913     -87.263      -8.310
  C      -25.675     -87.934      -7.443
  O      -22.717     -90.870      -5.860
  O      -23.506     -89.618      -3.765
  H      -21.978     -90.252      -5.715
  H      -30.314     -88.569      -6.879
  H      -26.953     -84.680      -8.713
  H      -23.957     -87.626      -8.665
  H      -25.348     -88.892      -7.052
  H      -28.485     -87.494      -5.675
  H      -28.487     -89.211      -7.947
  H      -26.862     -90.668      -7.021
  H      -28.306     -90.297      -4.338
  H      -26.023     -90.606      -3.416
  H      -26.589     -92.066      -4.258
  P      -28.581     -92.534      -7.900
  C      -26.274     -93.715      -7.440
  O      -27.042     -92.829      -8.239
  O      -29.004     -91.367      -8.909
  O      -29.481     -93.722      -7.890
  H      -28.741     -90.490      -8.578
  H      -25.279     -93.775      -7.830
  H      -26.722     -94.687      -7.453
  H      -26.242     -93.351      -6.434

 6  7  8  9  10  11  12  13  14  15  16  27  31  32  33  34  35 0
 6-311+G(2d,p)
 ****
 36  37 0
 6-311+G(2d,p)
 ****
 1  2  3  4  5  17  18  19  20  21  22  23  24  25 0
 3-21G
 ****
 26  28  29  30  38  39  40  41  42  43  44  45 0
 3-21G
 ****


