%nproc=1
%NoSave
%Mem=1900MB
#P OB98/GEN NMR

erre ene a

0 1
  C      874.358    -899.219     795.510
  O      873.742    -898.809     794.310
  P      874.381    -897.639     793.400
  C      872.222    -897.989     792.047
  O      873.157    -897.049     792.558
  C      870.800    -897.429     792.130
  O      870.491    -897.189     793.525
  C      870.580    -896.089     791.433
  O      870.305    -896.179     790.027
  C      869.328    -895.589     792.161
  O      868.164    -896.259     791.621
  C      869.596    -896.029     793.593
  N      869.290    -893.519     798.038
  C      868.579    -894.549     797.535
  N      868.703    -895.169     796.323
  C      869.746    -894.609     795.646
  C      870.556    -893.579     796.036
  C      870.315    -892.999     797.302
  N      871.064    -891.989     797.846
  N      871.489    -893.299     795.059
  C      871.239    -894.169     794.088
  N      870.190    -894.999     794.415
  O      875.583    -898.059     792.612
  O      874.699    -896.469     794.450
  H      868.224    -896.189     790.660
  H      875.333    -895.829     794.057
  H      867.779    -894.929     798.164
  H      871.782    -894.229     793.167
  H      868.673    -896.369     794.099
  H      869.175    -894.499     792.028
  H      871.412    -895.379     791.628
  H      870.106    -898.169     791.749
  H      872.277    -898.899     792.665
  H      870.887    -891.729     798.781
  H      871.920    -891.719     797.343
  H      872.493    -898.259     791.008
  P      871.179    -895.249     789.049
  C      869.057    -895.069     787.528
  O      870.110    -894.419     788.204
  O      872.208    -895.979     788.242
  O      871.807    -894.159     790.057
  H      871.154    -893.549     790.443
  H      868.354    -894.329     787.148
  H      868.504    -895.729     788.229
  H      869.443    -895.649     786.687
  H      873.780    -900.000     795.959
  H      874.418    -898.389     796.182
  H      875.343    -899.580     795.300

 3  4  5  6  7  8  9  10  11  12  22  25  29  30  31  32 0
 6-311+G(2d,p)
 ****
 33  36  37 0
 6-311+G(2d,p)
 ****
 1  2  13  14  15  16  17  18  19  20  21  23  24  26 0
 3-21G
 ****
 27  28  34  35  38  39  40  41  42  43  44  45  46  47  48 0
 3-21G
 ****


