%nproc=1
%NoSave
%Mem=1900MB
#P OB98/GEN NMR

erre ene a

0 1
  C     -121.925     328.155    -301.317
  O     -122.076     329.162    -300.304
  P     -120.749     329.572    -299.489
  C     -121.557     332.001    -299.092
  O     -121.127     330.783    -298.499
  C     -121.886     333.050    -298.016
  O     -123.047     332.638    -297.231
  C     -120.747     333.313    -297.030
  O     -120.801     334.694    -296.654
  C     -121.131     332.466    -295.834
  O     -120.464     332.888    -294.652
  C     -122.646     332.653    -295.843
  N     -123.356     330.636    -291.204
  C     -122.615     331.675    -291.632
  N     -122.464     332.136    -292.895
  C     -123.216     331.425    -293.755
  C     -124.017     330.331    -293.464
  C     -124.071     329.923    -292.116
  N     -124.804     328.853    -291.684
  N     -124.591     329.833    -294.619
  C     -124.144     330.614    -295.585
  N     -123.334     331.609    -295.103
  O     -119.833     330.257    -300.605
  O     -120.060     328.413    -298.846
  H     -119.498     332.837    -294.800
  H     -119.087     329.675    -300.831
  H     -122.064     332.210    -290.857
  H     -124.367     330.501    -296.633
  H     -122.950     333.611    -295.403
  H     -120.862     331.411    -296.022
  H     -119.749     333.063    -297.420
  H     -122.156     333.992    -298.531
  H     -122.451     331.826    -299.707
  H     -124.771     328.611    -290.703
  H     -125.302     328.290    -292.363
  H     -120.789     332.364    -299.779
  P     -119.714     335.661    -297.338
  C     -121.430     337.574    -297.697
  O     -120.228     337.158    -297.078
  O     -119.941     335.441    -298.909
  O     -118.302     335.377    -296.927
  H     -119.121     335.642    -299.395
  H     -122.000     338.180    -296.988
  H     -122.049     336.724    -298.014
  H     -121.186     338.178    -298.573
  H     -122.871     327.973    -301.783
  H     -121.567     327.251    -300.871
  H     -121.224     328.491    -302.053

 3  4  5  6  7  8  9  10  11  12  22  25  29  30  31  32 0
 6-311+G(2d,p)
 ****
 33  36  37 0
 6-311+G(2d,p)
 ****
 1  2  13  14  15  16  17  18  19  20  21  23  24  26 0
 3-21G
 ****
 27  28  34  35  38  39  40  41  42  43  44  45  46  47  48 0
 3-21G
 ****


