%nproc=1
%NoSave
%Mem=1900MB
#P OB98/GEN NMR

erre ene a

0 1
  C       22.147    -223.009       4.974
  O       21.212    -223.930       4.412
  P       21.172    -224.114       2.820
  C       22.834    -225.956       2.127
  O       21.490    -225.650       2.486
  C       22.899    -227.263       1.335
  O       24.139    -227.385       0.611
  C       22.818    -228.501       2.210
  O       21.496    -228.708       2.676
  C       23.349    -229.569       1.267
  O       22.319    -230.033       0.380
  C       24.423    -228.795       0.471
  N       25.782    -229.109       0.881
  C       26.267    -230.362       0.494
  O       25.542    -231.145      -0.121
  N       27.554    -230.702       0.830
  C       28.287    -229.867       1.500
  N       29.555    -230.256       1.801
  C       27.810    -228.542       1.937
  C       26.558    -228.234       1.604
  O       21.955    -223.115       2.034
  O       19.604    -224.007       2.491
  H       22.710    -230.774      -0.124
  H       19.496    -223.636       1.594
  H       28.462    -227.879       2.487
  H       26.126    -227.281       1.888
  H       24.337    -229.021      -0.600
  H       23.724    -230.442       1.810
  H       23.498    -228.394       3.066
  H       22.071    -227.264       0.611
  H       29.854    -231.175       1.499
  H       23.443    -226.039       3.031
  H       30.218    -229.658       2.273
  H       23.242    -225.122       1.547
  P       21.243    -228.632       4.257
  C       20.456    -226.201       4.690
  O       20.088    -227.555       4.516
  O       22.561    -227.897       4.796
  O       21.052    -229.954       4.926
  H       22.790    -228.240       5.679
  H       19.570    -225.577       4.538
  H       21.223    -225.900       3.974
  H       20.823    -226.048       5.708
  H       22.047    -223.004       6.039
  H       21.954    -222.028       4.593
  H       23.141    -223.305       4.711

 3  4  5  6  7  8  9  10  11  12  13  23  27  28  29  30  32 0
 6-311+G(2d,p)
 ****
 34  35 0
 6-311+G(2d,p)
 ****
 1  2  14  15  16  17  18  19  20  21  22  24  25  26 0
 3-21G
 ****
 31  33  36  37  38  39  40  41  42  43  44  45  46 0
 3-21G
 ****


