%nproc=1
%NoSave
%Mem=1900MB
#P OB98/GEN NMR

erre ene a

0 1
  C       20.777    -170.660    -108.959
  O       20.334    -169.614    -109.807
  P       19.299    -168.547    -109.213
  C       16.868    -168.666    -108.301
  O       17.852    -169.242    -109.150
  C       15.508    -169.333    -108.509
  O       15.645    -170.772    -108.371
  C       14.442    -168.880    -107.507
  O       13.158    -168.870    -108.152
  C       14.424    -169.994    -106.478
  O       13.181    -170.044    -105.782
  C       14.703    -171.205    -107.370
  N       13.629    -175.790    -105.529
  C       12.951    -175.042    -106.472
  N       11.784    -175.554    -106.919
  N       13.383    -173.901    -106.941
  C       14.562    -173.510    -106.397
  C       15.335    -174.172    -105.469
  C       14.841    -175.427    -104.949
  O       15.376    -176.123    -104.092
  N       16.484    -173.478    -105.188
  C       16.389    -172.378    -105.907
  N       15.226    -172.336    -106.632
  O       19.153    -167.487    -110.407
  O       19.742    -167.878    -107.957
  H       13.060    -169.173    -105.360
  H       19.642    -166.672    -110.184
  H       13.250    -176.657    -105.190
  H       17.118    -171.577    -105.924
  H       13.797    -171.537    -107.892
  H       15.224    -169.842    -105.747
  H       11.364    -176.394    -106.549
  H       14.626    -167.896    -107.059
  H       11.246    -175.006    -107.577
  H       15.179    -169.142    -109.538
  H       16.783    -167.602    -108.523
  H       17.183    -168.770    -107.256
  P       12.050    -167.908    -107.499
  C       10.595    -168.038    -105.342
  O       11.666    -168.575    -106.093
  O       10.756    -168.167    -108.406
  O       12.437    -166.468    -107.455
  H       10.167    -167.390    -108.383
  H        9.813    -168.798    -105.255
  H       10.169    -167.145    -105.806
  H       10.955    -167.782    -104.345
  H       21.460    -171.287    -109.493
  H       19.936    -171.239    -108.638
  H       21.269    -170.243    -108.105

 3  4  5  6  7  8  9  10  11  12  23  26  30  31 0
 6-311+G(2d,p)
 ****
 33  35  36  37  38 0
 6-311+G(2d,p)
 ****
 1  2  13  14  15  16  17  18  19  20  21  22  24  25 0
 3-21G
 ****
 27  28  29  32  34  39  40  41  42  43  44  45  46  47  48  49 0
 3-21G
 ****


