%nproc=1
%NoSave
%Mem=1900MB
#P OB98/GEN NMR

erre ene a

0 1
  C     -115.661    -128.090    -352.988
  O     -115.879    -128.783    -354.205
  P     -115.678    -130.374    -354.207
  C     -113.526    -131.167    -355.445
  O     -114.089    -130.630    -354.258
  C     -112.959    -130.043    -356.315
  O     -112.154    -129.138    -355.521
  C     -112.040    -130.523    -357.432
  O     -112.763    -130.984    -358.563
  C     -111.291    -129.240    -357.771
  O     -112.108    -128.398    -358.611
  C     -111.115    -128.597    -356.383
  N     -106.686    -126.557    -355.035
  C     -107.859    -125.936    -355.422
  N     -107.829    -124.592    -355.527
  N     -108.969    -126.585    -355.689
  C     -108.847    -127.933    -355.561
  C     -107.738    -128.656    -355.180
  C     -106.516    -127.926    -354.902
  O     -105.427    -128.419    -354.610
  N     -108.000    -129.996    -355.151
  C     -109.268    -130.097    -355.510
  N     -109.810    -128.872    -355.806
  O     -116.160    -130.801    -355.676
  O     -116.420    -131.100    -353.138
  H     -112.371    -128.945    -359.379
  H     -116.334    -131.763    -355.703
  H     -105.858    -126.007    -354.852
  H     -109.825    -131.023    -355.578
  H     -111.261    -127.512    -356.414
  H     -110.360    -129.420    -358.311
  H     -107.001    -124.037    -355.394
  H     -111.325    -131.276    -357.072
  H     -108.662    -124.116    -355.866
  H     -113.804    -129.468    -356.723
  H     -114.295    -131.698    -356.002
  H     -112.733    -131.873    -355.178
  P     -112.044    -132.085    -359.485
  C     -111.424    -130.909    -361.720
  O     -111.024    -131.264    -360.408
  O     -113.206    -132.529    -360.493
  O     -111.469    -133.238    -358.726
  H     -113.051    -133.442    -360.811
  H     -110.738    -130.143    -362.104
  H     -112.438    -130.499    -361.725
  H     -111.375    -131.789    -362.377
  H     -115.831    -127.044    -353.138
  H     -114.653    -128.245    -352.665
  H     -116.335    -128.458    -352.243

 3  4  5  6  7  8  9  10  11  12  23  26  30  31 0
 6-311+G(2d,p)
 ****
 33  35  36  37  38 0
 6-311+G(2d,p)
 ****
 1  2  13  14  15  16  17  18  19  20  21  22  24  25 0
 3-21G
 ****
 27  28  29  32  34  39  40  41  42  43  44  45  46  47  48  49 0
 3-21G
 ****


