%nproc=1
%NoSave
%Mem=1900MB
#P OB98/GEN NMR

erre ene a

0 1
  C      295.330     123.462     262.262
  O      295.369     124.323     261.142
  H      294.788     122.554     261.985
  H      294.805     123.941     263.096
  H      296.342     123.185     262.568
  P      296.078     125.753     261.301
  C      293.741     126.850     261.165
  O      294.960     126.740     261.893
  C      293.285     128.305     261.111
  O      292.039     128.416     260.394
  C      293.048     128.940     262.482
  O      294.273     129.367     263.054
  C      292.146     130.101     262.099
  O      292.937     131.155     261.512
  C      291.246     129.462     261.026
  N      286.306     130.200     261.923
  C      287.275     131.095     261.517
  N      286.882     132.378     261.358
  N      288.522     130.772     261.301
  C      288.791     129.468     261.566
  C      287.917     128.491     261.990
  C      286.526     128.852     262.161
  O      285.628     128.081     262.496
  N      288.574     127.311     262.246
  C      289.827     127.562     261.928
  N      290.015     128.862     261.517
  O      296.772     126.283     260.084
  O      297.081     125.560     262.530
  H      293.659     131.354     262.136
  H      297.968     125.292     262.223
  H      285.362     130.511     262.081
  H      290.637     126.844     261.967
  H      290.965     130.176     260.247
  H      291.620     130.530     262.952
  H      285.974     132.719     261.652
  H      292.499     128.266     263.145
  H      287.592     133.061     261.119
  H      294.037     128.871     260.541
  H      292.995     126.231     261.677
  H      293.872     126.465     260.146
  P      294.530     129.306     264.640
  C      293.664     131.722     264.952
  O      293.497     130.353     265.276
  O      295.950     129.494     265.051
  O      293.899     127.906     265.084
  H      294.529     127.148     264.975
  H      292.909     132.300     265.444
  H      293.579     131.851     263.893
  H      294.630     132.050     265.274

 6  7  8  9  10  11  12  13  14  15  26  29  33  34 0
 6-311+G(2d,p)
 ****
 36  38  39  40  41 0
 6-311+G(2d,p)
 ****
 1  2  3  4  5  16  17  18  19  20  21  22  23  24  25 0
 3-21G
 ****
 27  28  30  31  32  35  37  42  43  44  45  46  47 0
 3-21G
 ****
 48  49 0
 3-21G
 ****


