%nproc=1
%NoSave
%Mem=1900MB
#P OB98/GEN NMR

erre ene a

0 1
  C      106.265    -363.144    -158.160
  O      107.145    -363.216    -159.264
  H      106.826    -362.800    -157.287
  H      105.860    -364.137    -157.949
  H      105.451    -362.442    -158.356
  P      106.476    -363.379    -160.714
  C      106.404    -361.087    -161.929
  O      105.754    -361.983    -161.041
  C      105.421    -360.037    -162.435
  O      104.409    -360.650    -163.262
  C      104.677    -359.289    -161.333
  O      105.451    -358.213    -160.817
  C      103.473    -358.775    -162.102
  O      103.857    -357.634    -162.900
  C      103.149    -359.965    -163.016
  N       98.368    -360.661    -161.474
  C       98.994    -359.517    -161.928
  N       98.241    -358.397    -161.969
  N      100.246    -359.470    -162.303
  C      100.883    -360.660    -162.186
  C      100.373    -361.860    -161.743
  C       98.984    -361.900    -161.347
  O       98.379    -362.891    -160.948
  N      101.321    -362.848    -161.763
  C      102.409    -362.242    -162.195
  N      102.196    -360.913    -162.463
  O      105.257    -364.381    -160.429
  O      107.378    -363.910    -161.775
  H      104.226    -356.969    -162.289
  H      105.506    -365.273    -160.735
  H       97.405    -360.639    -161.188
  H      103.367    -362.719    -162.338
  H      102.753    -359.647    -163.986
  H      102.664    -358.446    -161.449
  H       97.279    -358.357    -161.674
  H      104.344    -359.965    -160.536
  H       98.679    -357.548    -162.302
  H      105.977    -359.335    -163.069
  H      106.802    -361.653    -162.778
  H      107.231    -360.601    -161.402
  P      106.138    -358.393    -159.380
  C      108.493    -358.078    -160.419
  O      107.638    -358.905    -159.639
  O      105.398    -359.687    -158.797
  O      106.005    -357.229    -158.460
  H      104.828    -359.434    -158.045
  H      109.453    -358.541    -160.508
  H      108.599    -357.126    -159.943
  H      108.069    -357.945    -161.393

 6  7  8  9  10  11  12  13  14  15  26  29  33  34 0
 6-311+G(2d,p)
 ****
 36  38  39  40  41 0
 6-311+G(2d,p)
 ****
 1  2  3  4  5  16  17  18  19  20  21  22  23  24  25 0
 3-21G
 ****
 27  28  30  31  32  35  37  42  43  44  45  46  47 0
 3-21G
 ****
 48  49 0
 3-21G
 ****


