%nproc=1
%NoSave
%Mem=1900MB
#P OB98/GEN NMR

erre ene a

0 1
  C      144.162     -13.245      34.474
  O      143.015     -14.040      34.246
  H      144.099     -12.818      35.478
  H      144.194     -12.430      33.746
  H      145.073     -13.847      34.403
  P      143.054     -15.020      32.976
  C      141.826     -13.237      31.543
  O      142.958     -14.084      31.674
  C      142.076     -12.182      30.471
  O      143.093     -11.253      30.906
  C      142.551     -12.744      29.135
  O      141.462     -13.191      28.338
  C      143.202     -11.512      28.527
  O      142.182     -10.622      28.023
  C      143.890     -10.882      29.746
  N      148.627     -10.774      27.938
  C      147.461     -10.262      27.400
  N      147.574      -9.640      26.207
  N      146.291     -10.355      27.975
  C      146.326     -11.024      29.152
  C      147.415     -11.582      29.783
  C      148.704     -11.458      29.144
  O      149.770     -11.885      29.584
  N      147.062     -12.182      30.963
  C      145.758     -12.006      31.035
  N      145.262     -11.312      29.959
  O      141.621     -15.734      33.038
  O      144.160     -16.021      32.979
  H      141.757     -11.073      27.271
  H      141.732     -16.633      33.403
  H      149.501     -10.684      27.448
  H      145.129     -12.353      31.844
  H      143.905      -9.788      29.695
  H      143.856     -11.753      27.687
  H      148.440      -9.552      25.699
  H      143.305     -13.530      29.269
  H      146.732      -9.253      25.796
  H      141.148     -11.610      30.341
  H      141.636     -12.745      32.503
  H      140.957     -13.846      31.273
  P      141.645     -14.542      27.493
  C      142.127     -12.974      25.484
  O      142.485     -14.161      26.177
  O      140.169     -14.805      26.932
  O      142.151     -15.712      28.264
  H      139.789     -15.598      27.356
  H      142.767     -12.850      24.636
  H      142.234     -12.134      26.138
  H      141.111     -13.045      25.157

 6  7  8  9  10  11  12  13  14  15  26  29  33  34 0
 6-311+G(2d,p)
 ****
 36  38  39  40  41 0
 6-311+G(2d,p)
 ****
 1  2  3  4  5  16  17  18  19  20  21  22  23  24  25 0
 3-21G
 ****
 27  28  30  31  32  35  37  42  43  44  45  46  47 0
 3-21G
 ****
 48  49 0
 3-21G
 ****


