%nproc=1
%NoSave
%Mem=1900MB
#P OB98/GEN NMR

erre ene a

0 1
  C       25.011      20.486    -115.822
  O       24.801      19.086    -115.889
  P       23.958      18.517    -117.132
  C       21.726      18.000    -115.900
  O       22.418      18.836    -116.818
  C       20.331      18.556    -115.630
  O       20.407      19.897    -115.107
  C       19.450      18.658    -116.867
  O       18.852      17.418    -117.209
  C       18.395      19.644    -116.394
  O       17.414      18.965    -115.586
  C       19.220      20.609    -115.534
  N       17.577      24.304    -118.574
  C       16.862      23.349    -117.879
  N       15.526      23.344    -118.068
  N       17.406      22.481    -117.068
  C       18.755      22.600    -116.984
  C       19.572      23.506    -117.622
  C       18.957      24.453    -118.525
  O       19.541      25.286    -119.209
  N       20.885      23.322    -117.278
  C       20.866      22.310    -116.434
  N       19.603      21.810    -116.256
  O       24.049      16.931    -116.945
  O       24.449      18.956    -118.470
  H       16.949      18.340    -116.178
  H       23.810      16.482    -117.778
  H       17.112      24.948    -119.192
  H       21.739      21.898    -115.943
  H       18.681      20.916    -114.632
  H       17.854      20.117    -117.219
  H       15.053      23.945    -118.727
  H       19.999      19.091    -117.713
  H       14.983      22.615    -117.621
  H       19.855      17.922    -114.870
  H       22.288      17.950    -114.965
  H       21.658      16.990    -116.315
  P       18.757      17.068    -118.773
  C       16.388      18.126    -118.898
  O       17.716      18.122    -119.382
  O       17.956      15.684    -118.785
  O       20.076      16.967    -119.464
  H       18.179      15.168    -119.582
  H       15.902      19.054    -119.213
  H       16.367      18.075    -117.806
  H       15.837      17.280    -119.318
  H       25.583      20.719    -114.949
  H       24.066      20.986    -115.774
  H       25.542      20.809    -116.693

 3  4  5  6  7  8  9  10  11  12  23  26  30  31 0
 6-311+G(2d,p)
 ****
 33  35  36  37  38 0
 6-311+G(2d,p)
 ****
 1  2  13  14  15  16  17  18  19  20  21  22  24  25 0
 3-21G
 ****
 27  28  29  32  34  39  40  41  42  43  44  45  46  47  48  49 0
 3-21G
 ****


