%nproc=1
%NoSave
%Mem=1900MB
#P OB98/GEN NMR

erre ene a

0 1
  C      160.448     283.441      31.005
  O      160.416     282.062      30.681
  P      161.208     281.052      31.647
  C      163.132     280.643      29.950
  O      162.069     280.079      30.706
  C      163.472     279.766      28.745
  O      164.542     280.398      27.989
  C      163.943     278.345      29.102
  O      163.457     277.478      28.070
  C      165.454     278.488      29.038
  O      166.146     277.253      28.946
  C      165.590     279.415      27.835
  N      170.278     279.137      25.812
  C      169.173     278.375      25.637
  N      167.956     278.516      26.203
  C      167.936     279.582      27.024
  C      168.985     280.437      27.317
  C      170.205     280.182      26.667
  N      171.332     280.957      26.856
  N      168.595     281.397      28.228
  C      167.332     281.126      28.480
  N      166.884     280.052      27.761
  O      160.048     280.098      32.198
  O      161.970     281.706      32.759
  H      167.110     277.407      28.981
  H      160.189     279.876      33.137
  H      169.284     277.541      24.947
  H      166.704     281.664      29.178
  H      165.418     278.889      26.887
  H      165.802     278.980      29.951
  H      163.569     277.993      30.069
  H      162.593     279.720      28.091
  H      164.023     280.719      30.582
  H      172.201     280.578      26.506
  H      171.326     281.597      27.643
  H      162.857     281.655      29.636
  P      162.166     276.571      28.361
  C      163.400     275.150      30.113
  O      162.780     275.166      28.838
  O      161.694     276.228      26.871
  O      161.118     277.189      29.220
  H      162.430     275.886      26.330
  H      163.681     274.120      30.348
  H      162.707     275.514      30.877
  H      164.301     275.767      30.095
  H      159.883     283.991      30.281
  H      161.461     283.785      31.002
  H      160.024     283.589      31.976

 3  4  5  6  7  8  9  10  11  12  22  25  29  30  31  32 0
 6-311+G(2d,p)
 ****
 33  36  37 0
 6-311+G(2d,p)
 ****
 1  2  13  14  15  16  17  18  19  20  21  23  24  26 0
 3-21G
 ****
 27  28  34  35  38  39  40  41  42  43  44  45  46  47  48 0
 3-21G
 ****


