%nproc=1
%NoSave
%Mem=1900MB
#P OB98/GEN NMR

erre ene a

0 1
  C       34.545     302.005     168.274
  O       35.183     301.662     169.512
  P       35.135     300.191     170.155
  C       37.527     299.998     171.127
  O       36.142     300.162     171.406
  C       38.382     300.519     172.287
  O       38.133     301.929     172.501
  C       38.095     299.884     173.640
  O       38.595     298.563     173.734
  C       38.767     300.881     174.585
  O       40.169     300.610     174.716
  C       38.554     302.219     173.853
  N       37.600     303.087     174.523
  C       38.012     303.657     175.732
  O       39.101     303.357     176.220
  N       37.172     304.545     176.358
  C       35.984     304.757     175.881
  N       35.202     305.658     176.535
  C       35.462     304.068     174.685
  C       36.314     303.259     174.062
  O       35.369     299.094     169.170
  O       33.686     300.070     170.823
  H       33.421     299.131     170.858
  H       40.584     301.430     175.053
  H       34.452     304.243     174.344
  H       36.017     302.726     173.165
  H       39.510     302.748     173.750
  H       38.336     300.848     175.591
  H       37.012     299.886     173.820
  H       39.436     300.388     172.019
  H       35.595     306.118     177.345
  H       37.768     300.571     170.225
  H       34.273     305.911     176.232
  H       37.733     298.940     170.933
  P       37.530     297.370     173.616
  C       39.378     295.578     173.280
  O       38.266     296.013     174.041
  O       37.314     297.214     172.038
  O       36.234     297.628     174.318
  H       36.373     297.029     171.852
  H       40.030     294.984     173.923
  H       39.946     296.422     172.877
  H       39.027     294.952     172.457
  H       34.719     303.038     168.057
  H       33.493     301.830     168.355
  H       34.948     301.403     167.486

 3  4  5  6  7  8  9  10  11  12  13  24  27  28  29  30  32 0
 6-311+G(2d,p)
 ****
 34  35 0
 6-311+G(2d,p)
 ****
 1  2  14  15  16  17  18  19  20  21  22  23  25  26 0
 3-21G
 ****
 31  33  36  37  38  39  40  41  42  43  44  45  46 0
 3-21G
 ****


