%nproc=1
%NoSave
%Mem=1900MB
#P OB98/GEN NMR

erre ene a

0 1
  C     -110.820    -841.955    -242.263
  O     -112.182    -841.833    -241.918
  H     -110.244    -842.124    -241.351
  H     -110.464    -841.036    -242.733
  H     -110.666    -842.802    -242.937
  P     -113.248    -841.578    -243.089
  C     -115.172    -843.054    -242.175
  O     -114.127    -842.925    -243.124
  C     -115.187    -844.463    -241.595
  O     -114.008    -844.719    -240.799
  C     -116.352    -844.760    -240.655
  O     -117.595    -844.921    -241.314
  C     -115.857    -846.048    -240.023
  O     -116.022    -847.135    -240.951
  C     -114.365    -845.717    -239.803
  N     -114.094    -845.211    -238.454
  C     -113.122    -845.897    -237.710
  O     -112.548    -846.882    -238.182
  N     -112.851    -845.476    -236.435
  C     -113.496    -844.475    -235.927
  N     -113.193    -844.103    -234.657
  C     -114.542    -843.734    -236.671
  C     -114.784    -844.151    -237.910
  O     -112.689    -841.141    -244.404
  O     -114.290    -840.531    -242.462
  H     -116.891    -847.017    -241.374
  H     -114.968    -840.331    -243.154
  H     -115.076    -842.925    -236.197
  H     -115.540    -843.660    -238.515
  H     -113.735    -846.597    -239.981
  H     -116.398    -846.319    -239.113
  H     -116.424    -843.993    -239.870
  H     -115.164    -845.167    -242.439
  H     -112.477    -844.632    -234.172
  H     -116.118    -842.825    -242.673
  H     -113.704    -843.386    -234.158
  H     -115.023    -842.342    -241.357
  P     -118.507    -843.608    -241.488
  C     -119.516    -844.134    -243.834
  O     -118.622    -843.350    -243.066
  O     -117.554    -842.432    -240.973
  O     -119.821    -843.642    -240.773
  H     -117.770    -842.198    -240.047
  H     -119.466    -843.831    -244.859
  H     -120.513    -843.998    -243.470
  H     -119.245    -845.166    -243.753

 6  7  8  9  10  11  12  13  14  15  16  26  30  31  32  33  35 0
 6-311+G(2d,p)
 ****
 37  38 0
 6-311+G(2d,p)
 ****
 1  2  3  4  5  17  18  19  20  21  22  23  24  25 0
 3-21G
 ****
 27  28  29  34  36  39  40  41  42  43  44  45  46 0
 3-21G
 ****


