%nproc=1
%NoSave
%Mem=1900MB
#P OB98/GEN NMR

erre ene a

0 1
  C      297.250      85.606    -442.127
  O      297.405      84.485    -442.989
  P      298.631      84.515    -444.030
  C      299.679      82.745    -445.618
  O      298.843      82.994    -444.492
  C      299.155      81.559    -446.423
  O      299.323      80.338    -445.672
  C      297.676      81.626    -446.768
  O      297.427      82.439    -447.902
  C      297.385      80.173    -447.085
  O      297.837      79.856    -448.411
  C      298.243      79.442    -446.043
  N      295.171      75.904    -443.987
  C      295.689      76.037    -445.231
  N      296.488      77.015    -445.701
  C      296.719      77.941    -444.757
  C      296.227      77.958    -443.460
  C      295.425      76.873    -443.074
  N      294.927      76.721    -441.797
  N      296.680      79.073    -442.786
  C      297.434      79.709    -443.653
  N      297.497      79.062    -444.857
  O      299.897      84.792    -443.091
  O      298.508      85.523    -445.121
  H      298.813      79.892    -448.394
  H      300.620      85.189    -443.611
  H      295.426      75.250    -445.933
  H      297.962      80.639    -443.456
  H      298.699      78.529    -446.446
  H      296.316      79.933    -447.045
  H      297.082      81.940    -445.898
  H      299.761      81.479    -447.337
  H      300.689      82.526    -445.268
  H      294.521      75.834    -441.557
  H      295.283      77.333    -441.072
  H      299.707      83.646    -446.243
  P      295.917      82.475    -448.454
  C      294.517      84.240    -449.760
  O      295.752      83.909    -449.144
  O      295.046      82.587    -447.118
  O      295.537      81.293    -449.278
  H      294.151      82.222    -447.259
  H      294.468      85.317    -449.897
  H      293.674      83.920    -449.138
  H      294.452      83.751    -450.738
  H      296.402      85.453    -441.493
  H      297.103      86.489    -442.713
  H      298.129      85.719    -441.527

 3  4  5  6  7  8  9  10  11  12  22  25  29  30  31  32 0
 6-311+G(2d,p)
 ****
 33  36  37 0
 6-311+G(2d,p)
 ****
 1  2  13  14  15  16  17  18  19  20  21  23  24  26 0
 3-21G
 ****
 27  28  34  35  38  39  40  41  42  43  44  45  46  47  48 0
 3-21G
 ****


