%nproc=1
%NoSave
%Mem=1900MB
#P OB98/GEN NMR

erre ene a

0 1
  C     -299.873     427.498      91.523
  O     -300.468     427.377      90.223
  P     -300.969     425.982      89.606
  C     -303.441     425.960      90.370
  O     -302.537     426.113      89.284
  C     -304.814     425.490      89.873
  O     -305.650     425.113      90.993
  C     -305.630     426.541      89.136
  O     -305.135     426.797      87.835
  C     -307.021     425.914      89.168
  O     -307.197     424.977      88.093
  C     -307.018     425.171      90.520
  N     -307.888     425.787      91.508
  C     -309.173     426.129      91.081
  O     -309.501     425.985      89.905
  N     -310.053     426.645      92.005
  C     -309.652     426.891      93.210
  N     -310.573     427.387      94.082
  C     -308.266     426.674      93.659
  C     -307.447     426.123      92.768
  O     -300.625     424.794      90.438
  O     -300.287     425.892      88.160
  H     -300.189     424.955      87.904
  H     -308.034     424.502      88.268
  H     -307.961     426.937      94.667
  H     -306.411     425.914      93.021
  H     -307.316     424.126      90.378
  H     -307.816     426.662      89.071
  H     -305.636     427.469      89.721
  H     -304.662     424.608      89.237
  H     -311.518     427.514      93.745
  H     -303.558     426.928      90.868
  H     -310.368     427.590      95.051
  H     -303.022     425.248      91.091
  P     -305.064     428.329      87.373
  C     -302.879     428.736      88.709
  O     -303.534     428.796      87.460
  O     -305.777     429.119      88.566
  O     -305.729     428.611      86.066
  H     -306.316     429.847      88.206
  H     -301.806     428.607      88.537
  H     -303.244     427.905      89.321
  H     -303.035     429.676      89.246
  H     -299.624     428.522      91.707
  H     -298.985     426.902      91.566
  H     -300.566     427.160      92.265

 3  4  5  6  7  8  9  10  11  12  13  24  27  28  29  30  32 0
 6-311+G(2d,p)
 ****
 34  35 0
 6-311+G(2d,p)
 ****
 1  2  14  15  16  17  18  19  20  21  22  23  25  26 0
 3-21G
 ****
 31  33  36  37  38  39  40  41  42  43  44  45  46 0
 3-21G
 ****


