%nproc=1
%NoSave
%Mem=1900MB
#P OB98/GEN NMR

erre ene a

0 1
  C     1121.573    1959.970    -136.121
  O     1122.967    1959.992    -135.770
  P     1124.038    1960.988    -136.391
  C     1124.410    1962.504    -134.294
  O     1123.929    1962.384    -135.608
  C     1124.026    1963.844    -133.630
  O     1122.610    1964.085    -133.748
  C     1124.328    1963.796    -132.110
  O     1125.637    1964.075    -131.652
  C     1123.242    1964.663    -131.462
  O     1123.660    1966.022    -131.275
  C     1122.103    1964.623    -132.509
  N     1117.393    1964.682    -130.481
  C     1118.266    1965.720    -130.709
  N     1117.864    1966.963    -130.319
  N     1119.421    1965.588    -131.280
  C     1119.789    1964.316    -131.537
  C     1119.015    1963.179    -131.322
  C     1117.690    1963.336    -130.769
  O     1116.877    1962.451    -130.554
  N     1119.680    1962.046    -131.701
  C     1120.855    1962.466    -132.109
  N     1120.970    1963.849    -132.028
  O     1124.061    1961.034    -137.883
  O     1125.439    1960.385    -135.879
  H     1123.030    1966.474    -130.685
  H     1126.086    1960.564    -136.590
  H     1116.496    1964.841    -130.061
  H     1121.677    1961.841    -132.480
  H     1121.731    1965.619    -132.752
  H     1122.968    1964.277    -130.485
  H     1117.017    1967.119    -129.794
  H     1124.100    1962.771    -131.790
  H     1118.570    1967.697    -130.307
  H     1124.508    1964.675    -134.128
  H     1125.495    1962.403    -134.329
  H     1124.031    1961.663    -133.676
  P     1126.836    1963.004    -131.505
  C     1128.014    1963.878    -133.632
  O     1127.430    1962.745    -132.966
  O     1126.093    1961.611    -131.187
  O     1127.865    1963.320    -130.462
  H     1126.738    1960.979    -130.840
  H     1128.102    1963.667    -134.733
  H     1129.017    1964.011    -133.213
  H     1127.406    1964.796    -133.486
  H     1121.076    1959.207    -135.559
  H     1121.472    1959.766    -137.167
  H     1121.134    1960.920    -135.898

 3  4  5  6  7  8  9  10  11  12  23  26  30  31 0
 6-311+G(2d,p)
 ****
 33  35  36  37  38 0
 6-311+G(2d,p)
 ****
 1  2  13  14  15  16  17  18  19  20  21  22  24  25 0
 3-21G
 ****
 27  28  29  32  34  39  40  41  42  43  44  45  46  47  48  49 0
 3-21G
 ****


