%nproc=1
%NoSave
%Mem=1900MB
#P OB98/GEN NMR

erre ene a

0 1
  C     -102.321    -111.283     -44.611
  O     -102.843    -110.291     -43.750
  H     -102.942    -111.333     -45.508
  H     -102.351    -112.254     -44.110
  H     -101.295    -111.044     -44.903
  P     -101.923    -109.832     -42.522
  C     -101.864    -110.274     -39.968
  O     -102.483    -110.574     -41.210
  C     -102.123    -111.395     -38.960
  O     -103.532    -111.385     -38.608
  C     -101.784    -112.796     -39.489
  O     -101.209    -113.563     -38.427
  C     -103.140    -113.370     -39.860
  O     -103.158    -114.796     -39.832
  C     -104.041    -112.716     -38.819
  N     -108.180    -115.509     -39.513
  C     -106.961    -115.841     -38.952
  N     -106.821    -117.112     -38.515
  N     -105.968    -115.000     -38.829
  C     -106.262    -113.755     -39.275
  C     -107.427    -113.303     -39.855
  C     -108.507    -114.252     -40.012
  O     -109.600    -114.023     -40.521
  N     -107.322    -111.980     -40.207
  C     -106.101    -111.636     -39.841
  N     -105.423    -112.675     -39.265
  O     -102.350    -108.304     -42.299
  O     -100.452    -109.960     -42.739
  H     -104.095    -115.081     -39.898
  H     -101.592    -107.719     -42.485
  H     -108.907    -116.198     -39.596
  H     -105.660    -110.657     -39.975
  H     -104.026    -113.247     -37.859
  H     -103.413    -113.047     -40.873
  H     -107.561    -117.797     -38.536
  H     -101.099    -112.778     -40.337
  H     -105.951    -117.369     -38.067
  H     -101.565    -111.175     -38.042
  H     -102.274    -109.335     -39.583
  H     -100.785    -110.155     -40.121
  P      -99.756    -114.190     -38.687
  C      -98.799    -116.575     -39.034
  O      -99.938    -115.728     -39.117
  O      -99.128    -114.281     -37.217
  O      -98.899    -113.372     -39.597
  H      -98.433    -113.605     -37.111
  H      -99.065    -117.562     -39.349
  H      -98.450    -116.605     -38.023
  H      -98.025    -116.195     -39.668

 6  7  8  9  10  11  12  13  14  15  26  29  33  34 0
 6-311+G(2d,p)
 ****
 36  38  39  40  41 0
 6-311+G(2d,p)
 ****
 1  2  3  4  5  16  17  18  19  20  21  22  23  24  25 0
 3-21G
 ****
 27  28  30  31  32  35  37  42  43  44  45  46  47 0
 3-21G
 ****
 48  49 0
 3-21G
 ****


