%nproc=1
%NoSave
%Mem=1900MB
#P OB98/GEN NMR

erre ene a

0 1
  C     -200.800     198.567     -33.158
  O     -200.789     197.728     -34.294
  H     -200.143     198.135     -32.398
  H     -201.810     198.640     -32.745
  H     -200.430     199.565     -33.413
  P     -201.684     198.141     -35.561
  C     -203.323     196.258     -34.854
  O     -203.163     197.633     -35.181
  C     -204.730     196.004     -34.317
  O     -204.999     196.805     -33.149
  C     -205.855     196.344     -35.284
  O     -206.001     195.418     -36.351
  C     -207.039     196.317     -34.332
  O     -207.388     194.950     -34.032
  C     -206.437     197.030     -33.096
  N     -206.736     198.461     -33.070
  C     -207.906     198.845     -32.410
  O     -208.641     198.007     -31.893
  N     -208.245     200.179     -32.379
  C     -207.487     201.051     -32.979
  N     -207.872     202.352     -32.921
  C     -206.254     200.685     -33.701
  C     -205.939     199.387     -33.709
  O     -201.175     197.697     -36.894
  O     -201.848     199.728     -35.435
  H     -208.067     194.980     -33.341
  H     -202.385     200.038     -36.205
  H     -205.673     201.445     -34.212
  H     -205.051     199.046     -34.226
  H     -206.802     196.572     -32.168
  H     -207.933     196.792     -34.732
  H     -205.746     197.369     -35.667
  H     -204.773     194.950     -34.003
  H     -208.719     202.574     -32.416
  H     -202.566     195.994     -34.110
  H     -207.385     203.090     -33.421
  H     -203.178     195.641     -35.743
  P     -206.464     196.014     -37.772
  C     -208.960     195.416     -37.257
  O     -208.009     196.418     -37.608
  O     -206.494     194.718     -38.708
  O     -205.599     197.102     -38.317
  H     -205.681     194.660     -39.246
  H     -209.933     195.856     -37.191
  H     -208.696     194.989     -36.312
  H     -208.964     194.651     -38.005

 6  7  8  9  10  11  12  13  14  15  16  26  30  31  32  33  35 0
 6-311+G(2d,p)
 ****
 37  38 0
 6-311+G(2d,p)
 ****
 1  2  3  4  5  17  18  19  20  21  22  23  24  25 0
 3-21G
 ****
 27  28  29  34  36  39  40  41  42  43  44  45  46 0
 3-21G
 ****


