%nproc=1
%NoSave
%Mem=1900MB
#P OB98/GEN NMR

erre ene a

0 1
  C     -223.528      61.481     381.699
  O     -222.382      61.942     381.026
  H     -224.350      61.419     380.982
  H     -223.814      62.178     382.491
  H     -223.357      60.485     382.120
  P     -221.020      62.170     381.852
  C     -221.700      64.586     382.399
  O     -220.735      63.754     381.769
  C     -221.273      66.051     382.355
  O     -220.165      66.265     383.275
  C     -220.818      66.522     380.964
  O     -221.434      67.776     380.649
  C     -219.315      66.717     381.126
  O     -218.769      67.643     380.190
  C     -219.240      67.134     382.602
  N     -217.886      67.029     383.129
  C     -216.907      67.780     382.475
  O     -217.208      68.485     381.508
  N     -215.603      67.677     382.885
  C     -215.298      66.852     383.842
  N     -213.984      66.773     384.187
  C     -216.298      66.019     384.544
  C     -217.560      66.159     384.144
  O     -219.883      61.300     381.430
  O     -221.434      61.968     383.386
  H     -217.829      67.805     380.424
  H     -220.626      61.738     383.907
  H     -215.989      65.345     385.334
  H     -218.363      65.589     384.599
  H     -219.588      68.172     382.734
  H     -218.813      65.756     380.989
  H     -221.042      65.809     380.172
  H     -222.105      66.665     382.730
  H     -213.332      67.359     383.676
  H     -221.826      64.253     383.439
  H     -213.625      66.157     384.897
  H     -222.652      64.473     381.869
  P     -222.919      67.707     380.052
  C     -222.034      68.338     377.696
  O     -222.965      68.617     378.733
  O     -223.788      68.519     381.122
  O     -223.428      66.307     379.886
  H     -224.370      67.913     381.612
  H     -222.185      69.022     376.887
  H     -222.178      67.337     377.347
  H     -221.038      68.445     378.072

 6  7  8  9  10  11  12  13  14  15  16  26  30  31  32  33  35 0
 6-311+G(2d,p)
 ****
 37  38 0
 6-311+G(2d,p)
 ****
 1  2  3  4  5  17  18  19  20  21  22  23  24  25 0
 3-21G
 ****
 27  28  29  34  36  39  40  41  42  43  44  45  46 0
 3-21G
 ****


