%nproc=1
%NoSave
%Mem=1900MB
#P OB98/GEN NMR

erre ene a

0 1
  C      565.196     263.453     -22.844
  O      566.085     263.737     -23.900
  P      566.960     265.071     -23.991
  C      565.818     265.892     -26.204
  O      566.136     266.160     -24.840
  C      566.083     267.124     -27.077
  O      565.546     266.876     -28.398
  C      565.354     268.370     -26.533
  O      566.126     269.569     -26.583
  C      564.038     268.360     -27.296
  O      563.377     269.609     -27.319
  C      564.472     267.806     -28.654
  N      559.819     268.118     -30.681
  C      560.625     269.131     -30.194
  N      560.043     270.344     -30.064
  N      561.874     268.945     -29.830
  C      562.281     267.660     -29.910
  C      561.577     266.576     -30.380
  C      560.210     266.795     -30.807
  O      559.424     265.909     -31.141
  N      562.280     265.411     -30.249
  C      563.411     265.781     -29.670
  N      563.433     267.133     -29.410
  O      568.413     264.898     -24.290
  O      566.831     265.647     -22.491
  H      562.473     269.464     -27.640
  H      567.679     266.089     -22.282
  H      558.841     268.304     -30.866
  H      564.213     265.119     -29.387
  H      564.856     268.594     -29.305
  H      563.372     267.657     -26.788
  H      559.056     270.474     -30.194
  H      565.143     268.259     -25.460
  H      560.526     271.027     -29.478
  H      567.162     267.278     -27.176
  H      564.756     265.634     -26.228
  H      566.387     265.036     -26.569
  P      566.062     270.838     -25.621
  C      565.404     272.304     -27.615
  O      565.108     271.942     -26.285
  O      567.516     271.517     -25.733
  O      565.751     270.526     -24.191
  H      567.794     271.831     -24.858
  H      564.872     273.237     -27.851
  H      565.058     271.529     -28.300
  H      566.472     272.469     -27.744
  H      564.732     262.504     -23.014
  H      564.445     264.213     -22.796
  H      565.736     263.426     -21.921

 3  4  5  6  7  8  9  10  11  12  23  26  30  31 0
 6-311+G(2d,p)
 ****
 33  35  36  37  38 0
 6-311+G(2d,p)
 ****
 1  2  13  14  15  16  17  18  19  20  21  22  24  25 0
 3-21G
 ****
 27  28  29  32  34  39  40  41  42  43  44  45  46  47  48  49 0
 3-21G
 ****


