%nproc=1
%NoSave
%Mem=1900MB
#P OB98/GEN NMR

erre ene a

0 1
  C     -440.721     -64.876     372.499
  O     -441.892     -64.075     372.404
  P     -441.792     -62.555     372.903
  C     -441.495     -61.333     370.621
  O     -440.883     -61.777     371.835
  C     -441.853     -59.856     370.728
  O     -440.672     -59.044     370.898
  C     -442.552     -59.295     369.493
  O     -443.942     -59.591     369.467
  C     -442.329     -57.801     369.686
  O     -443.290     -57.283     370.630
  C     -440.916     -57.760     370.281
  N     -439.147     -54.319     367.025
  C     -440.095     -54.178     368.025
  N     -440.691     -52.972     368.125
  N     -440.420     -55.139     368.846
  C     -439.741     -56.294     368.622
  C     -438.778     -56.541     367.663
  C     -438.440     -55.480     366.750
  O     -437.648     -55.545     365.811
  N     -438.317     -57.833     367.751
  C     -438.986     -58.349     368.745
  N     -439.903     -57.482     369.279
  O     -440.843     -62.639     374.193
  O     -443.102     -61.914     373.224
  H     -443.186     -57.819     371.441
  H     -440.927     -61.834     374.730
  H     -438.935     -53.538     366.416
  H     -438.861     -59.373     369.111
  H     -440.831     -57.001     371.075
  H     -442.449     -57.232     368.758
  H     -440.533     -52.216     367.482
  H     -442.041     -59.618     368.573
  H     -441.437     -52.873     368.806
  H     -442.483     -59.717     371.611
  H     -442.398     -61.920     370.441
  H     -440.801     -61.505     369.789
  P     -444.469     -60.498     368.242
  C     -445.117     -62.633     369.565
  O     -444.203     -62.021     368.681
  O     -443.360     -60.230     367.102
  O     -445.858     -60.168     367.784
  H     -443.760     -60.365     366.221
  H     -444.951     -63.719     369.548
  H     -446.154     -62.443     369.254
  H     -444.968     -62.270     370.582
  H     -440.931     -65.860     372.134
  H     -440.411     -64.934     373.521
  H     -439.940     -64.437     371.914

 3  4  5  6  7  8  9  10  11  12  23  26  30  31 0
 6-311+G(2d,p)
 ****
 33  35  36  37  38 0
 6-311+G(2d,p)
 ****
 1  2  13  14  15  16  17  18  19  20  21  22  24  25 0
 3-21G
 ****
 27  28  29  32  34  39  40  41  42  43  44  45  46  47  48  49 0
 3-21G
 ****


