%nproc=1
%NoSave
%Mem=1900MB
#P OB98/GEN NMR

erre ene a

0 1
  C       42.675    -106.624     223.511
  O       43.006    -105.614     222.577
  H       43.465    -106.677     224.264
  H       42.605    -107.592     223.007
  H       41.729    -106.390     224.004
  P       41.956    -105.362     221.391
  C       43.457    -104.615     219.403
  O       42.591    -104.221     220.459
  C       43.838    -103.398     218.568
  O       42.672    -102.907     217.864
  C       44.341    -102.219     219.386
  O       45.690    -102.381     219.794
  C       44.132    -101.071     218.412
  O       45.223    -100.965     217.486
  C       42.852    -101.483     217.682
  N       39.277     -98.038     216.486
  C       40.253     -98.617     215.754
  N       41.161     -99.537     216.144
  C       40.964     -99.875     217.431
  C       40.010     -99.375     218.300
  C       39.131     -98.414     217.780
  N       38.152     -97.805     218.529
  N       40.153     -99.937     219.553
  C       41.167    -100.767     219.443
  N       41.690    -100.769     218.177
  O       40.745    -104.620     222.131
  O       41.502    -106.590     220.674
  H       45.191    -100.056     217.130
  H       40.034    -105.263     222.313
  H       40.324     -98.287     214.721
  H       41.566    -101.383     220.242
  H       42.909    -101.296     216.601
  H       44.053    -100.122     218.941
  H       43.693    -102.062     220.261
  H       44.584    -103.704     217.822
  H       42.946    -105.346     218.765
  H       44.350    -105.083     219.830
  H       37.603     -97.073     218.111
  H       38.109     -97.992     219.524
  P       45.978    -102.620     221.350
  C       48.108    -101.132     221.179
  O       47.539    -102.365     221.590
  O       45.817    -104.206     221.530
  O       45.077    -101.865     222.270
  H       45.424    -104.403     222.402
  H       49.152    -101.126     221.412
  H       47.624    -100.327     221.692
  H       47.977    -101.013     220.124

 6  7  8  9  10  11  12  13  14  15  25  28  32  33  34  35 0
 6-311+G(2d,p)
 ****
 36  37  40 0
 6-311+G(2d,p)
 ****
 1  2  3  4  5  16  17  18  19  20  21  22  23  24 0
 3-21G
 ****
 26  27  29  30  31  38  39 41  42  43  44  45  46  47  48 0
 3-21G
 ****


