%nproc=1
%NoSave
%Mem=1900MB
#P OB98/GEN NMR

erre ene a

0 1
  C      601.817    -367.690    -124.259
  O      602.597    -368.802    -124.652
  H      602.211    -366.774    -124.712
  H      600.790    -367.840    -124.607
  H      601.813    -367.594    -123.169
  P      604.145    -368.786    -124.230
  C      604.777    -371.292    -124.538
  O      604.833    -369.975    -125.068
  C      605.533    -372.244    -125.456
  O      604.727    -372.548    -126.624
  C      606.848    -371.687    -125.995
  O      607.899    -371.819    -125.057
  C      607.061    -372.603    -127.197
  O      607.542    -373.885    -126.756
  C      605.635    -372.723    -127.747
  N      606.134    -371.525    -132.703
  C      606.577    -372.571    -131.975
  N      606.413    -372.825    -130.665
  C      605.693    -371.831    -130.092
  C      605.175    -370.707    -130.692
  C      605.417    -370.557    -132.076
  N      604.974    -369.487    -132.814
  N      604.525    -369.904    -129.773
  C      604.617    -370.571    -128.637
  N      605.319    -371.737    -128.773
  O      604.132    -369.357    -122.728
  O      604.834    -367.464    -124.333
  H      608.333    -373.705    -126.207
  H      604.952    -369.094    -122.268
  H      607.156    -373.317    -132.532
  H      604.201    -370.240    -127.688
  H      605.433    -373.715    -128.180
  H      607.796    -372.198    -127.905
  H      606.740    -370.657    -126.337
  H      605.694    -373.185    -124.914
  H      603.729    -371.603    -124.467
  H      605.355    -369.388    -133.751
  H      604.578    -368.702    -132.329
  H      605.224    -371.296    -123.533
  P      608.999    -370.646    -125.017
  C      608.871    -370.225    -122.448
  O      609.650    -370.702    -123.553
  O      608.108    -369.316    -124.983
  O      609.966    -370.651    -126.163
  H      608.596    -368.559    -125.369
  H      609.435    -370.326    -121.544
  H      607.971    -370.798    -122.372
  H      608.626    -369.195    -122.603

 6  7  8  9  10  11  12  13  14  15  25  28  32  33  34  35 0
 6-311+G(2d,p)
 ****
 36  39  40 0
 6-311+G(2d,p)
 ****
 1  2  3  4  5  16  17  18  19  20  21  22  23  24 0
 3-21G
 ****
 26  27  29  30  31  37  38  41  42  43  44  45  46  47 0
 3-21G
 ****
 48 0
 3-21G
 ****


