%nproc=1
%NoSave
%Mem=1900MB
#P OB98/GEN NMR

erre ene a

0 1
  C     1225.541    -437.703     138.916
  O     1224.588    -436.652     138.998
  P     1224.433    -435.611     137.784
  C     1225.417    -433.562     138.988
  O     1225.576    -434.500     137.928
  C     1226.254    -432.307     138.719
  O     1227.654    -432.658     138.554
  C     1225.890    -431.558     137.443
  O     1224.670    -430.852     137.573
  C     1227.112    -430.684     137.247
  O     1227.066    -429.518     138.089
  C     1228.251    -431.633     137.711
  N     1229.001    -432.214     136.612
  C     1230.025    -431.427     136.075
  O     1230.216    -430.277     136.515
  N     1230.800    -431.964     135.083
  C     1230.495    -433.105     134.570
  N     1231.351    -433.601     133.635
  C     1229.318    -433.892     134.988
  C     1228.631    -433.400     136.014
  O     1223.034    -435.073     137.606
  O     1224.887    -436.445     136.495
  H     1224.200    -436.362     135.810
  H     1227.849    -428.975     137.878
  H     1229.075    -434.813     134.473
  H     1227.743    -433.912     136.390
  H     1228.935    -431.095     138.363
  H     1227.224    -430.320     136.201
  H     1225.792    -432.269     136.610
  H     1226.177    -431.650     139.596
  H     1232.153    -433.057     133.389
  H     1225.723    -434.015     139.918
  H     1231.381    -434.616     133.417
  H     1224.354    -433.291     139.050
  P     1224.133    -430.083     136.284
  C     1224.140    -427.822     137.548
  O     1224.555    -428.548     136.408
  O     1222.533    -430.041     136.499
  O     1224.476    -430.750     134.969
  H     1222.084    -430.144     135.640
  H     1224.791    -426.958     137.676
  H     1224.198    -428.431     138.459
  H     1223.110    -427.486     137.419
  H     1225.502    -438.291     139.809
  H     1226.521    -437.288     138.805
  H     1225.318    -438.322     138.072

 3  4  5  6  7  8  9  10  11  12  13  24  27  28  29  30  32 0
 6-311+G(2d,p)
 ****
 34  35 0
 6-311+G(2d,p)
 ****
 1  2  14  15  16  17  18  19  20  21  22  23  25  26 0
 3-21G
 ****
 31  33  36  37  38  39  40  41  42  43  44  45  46 0
 3-21G
 ****


