%nproc=1
%NoSave
%Mem=1900MB
#P OB98/GEN NMR

erre ene a

0 1
  C      186.777    -179.020    -337.170
  O      187.933    -179.866    -337.046
  P      188.092    -180.785    -335.737
  C      187.576    -182.928    -337.147
  O      187.311    -182.164    -335.978
  C      187.856    -184.387    -336.771
  O      189.050    -184.479    -335.959
  C      186.761    -185.042    -335.943
  O      185.644    -185.408    -336.739
  C      187.502    -186.237    -335.355
  O      187.548    -187.327    -336.292
  C      188.913    -185.656    -335.129
  N      189.179    -185.352    -333.727
  C      189.382    -186.441    -332.886
  O      189.287    -187.609    -333.263
  N      189.661    -186.143    -331.581
  C      189.694    -184.892    -331.030
  O      189.932    -184.692    -329.846
  C      189.389    -183.787    -331.950
  C      189.145    -184.062    -333.233
  O      187.132    -180.040    -334.690
  O      189.478    -180.904    -335.192
  H      188.046    -188.047    -335.857
  H      187.453    -180.204    -333.782
  H      189.842    -186.917    -330.960
  H      189.381    -182.781    -331.549
  H      188.922    -183.257    -333.925
  H      189.672    -186.361    -335.484
  H      187.028    -186.616    -334.444
  H      186.455    -184.376    -335.131
  H      188.031    -184.949    -337.697
  H      188.453    -182.515    -337.654
  H      186.716    -182.862    -337.821
  P      184.290    -184.576    -336.502
  C      183.911    -183.159    -338.666
  O      184.460    -183.238    -337.369
  O      184.479    -184.112    -334.980
  O      183.059    -185.377    -336.762
  H      185.411    -183.950    -334.760
  H      182.984    -183.731    -338.748
  H      184.637    -183.540    -339.391
  H      183.699    -182.112    -338.893
  H      186.827    -178.480    -338.093
  H      186.752    -178.329    -336.353
  H      185.892    -179.621    -337.156

 3  4  5  6  7  8  9  10  11  12  13  23  28  29  30  31  32 0
 6-311+G(2d,p)
 ****
 33  34 0
 6-311+G(2d,p)
 ****
 1  2  14  15  16  17  18  19  20  21  22  24  25  26 0
 3-21G
 ****
 27  35  36  37  38  39  40  41  42  43  44  45 0
 3-21G
 ****


