%nproc=1
%NoSave
%Mem=1900MB
#P OB98/GEN NMR

erre ene a

0 1
  C      357.835    -300.519     -45.370
  O      359.107    -299.898     -45.358
  H      357.191    -299.987     -46.074
  H      357.391    -300.462     -44.372
  H      357.914    -301.563     -45.684
  P      360.300    -300.707     -44.653
  C      360.906    -302.124     -46.739
  O      360.406    -302.117     -45.412
  C      361.676    -303.410     -47.010
  O      361.943    -303.554     -48.421
  C      363.029    -303.492     -46.308
  O      362.898    -303.939     -44.965
  C      363.728    -304.538     -47.163
  O      363.241    -305.851     -46.815
  C      363.257    -304.159     -48.574
  N      367.433    -303.676     -51.415
  C      366.887    -304.803     -50.827
  N      367.552    -305.962     -51.014
  N      365.791    -304.791     -50.112
  C      365.244    -303.560     -49.989
  C      365.694    -302.367     -50.518
  C      366.897    -302.399     -51.320
  O      367.416    -301.429     -51.873
  N      364.877    -301.324     -50.177
  C      363.949    -301.877     -49.423
  N      364.125    -303.228     -49.275
  O      359.674    -301.087     -43.227
  O      361.576    -299.950     -44.501
  H      363.751    -306.494     -47.345
  H      360.038    -300.482     -42.552
  H      368.283    -303.737     -51.947
  H      363.123    -301.342     -48.968
  H      363.143    -305.035     -49.221
  H      364.808    -304.552     -47.011
  H      368.413    -306.036     -51.535
  H      363.575    -302.544     -46.369
  H      367.169    -306.799     -50.596
  H      361.038    -304.254     -46.712
  H      361.572    -301.266     -46.875
  H      360.064    -302.041     -47.438
  P      364.119    -303.687     -43.957
  C      363.270    -301.477     -42.896
  O      364.230    -302.100     -43.742
  O      365.394    -304.031     -44.862
  O      364.098    -304.506     -42.711
  H      365.823    -304.850     -44.539
  H      363.466    -300.426     -42.847
  H      363.333    -301.898     -41.914
  H      362.289    -301.638     -43.291

 6  7  8  9  10  11  12  13  14  15  26  29  33  34 0
 6-311+G(2d,p)
 ****
 36  38  39  40  41 0
 6-311+G(2d,p)
 ****
 1  2  3  4  5  16  17  18  19  20  21  22  23  24  25 0
 3-21G
 ****
 27  28  30  31  32  35  37  42  43  44  45  46  47 0
 3-21G
 ****
 48  49 0
 3-21G
 ****


