%nproc=1
%NoSave
%Mem=1900MB
#P OB98/GEN NMR

erre ene a

0 1
  C     -517.611     421.115       2.076
  O     -518.396     421.509       3.185
  H     -518.250     420.594       1.360
  H     -516.823     420.434       2.404
  H     -517.172     421.989       1.586
  P     -517.720     422.492       4.254
  C     -515.776     420.810       4.639
  O     -516.823     421.572       5.218
  C     -515.199     419.845       5.675
  O     -514.443     420.612       6.656
  C     -516.261     419.042       6.440
  O     -515.743     417.731       6.691
  C     -516.375     419.793       7.755
  O     -516.879     419.007       8.825
  C     -514.923     420.239       7.961
  N     -514.802     421.345       8.904
  C     -514.151     421.094      10.107
  O     -513.597     420.035      10.396
  N     -514.149     422.130      11.007
  C     -514.740     423.346      10.836
  O     -514.724     424.226      11.686
  C     -515.422     423.549       9.546
  C     -515.422     422.554       8.658
  O     -518.952     422.914       5.182
  O     -517.007     423.671       3.680
  H     -519.389     423.714       4.832
  H     -516.850     419.558       9.634
  H     -513.681     421.963      11.884
  H     -515.912     424.498       9.380
  H     -515.935     422.665       7.706
  H     -514.312     419.394       8.304
  H     -517.037     420.663       7.634
  H     -517.223     418.969       5.925
  H     -514.490     419.174       5.175
  H     -514.982     421.481       4.297
  H     -516.164     420.259       3.777
  P     -515.833     416.663       5.499
  C     -518.421     416.288       5.656
  O     -517.112     415.758       5.821
  O     -514.581     415.723       5.831
  O     -515.806     417.295       4.148
  H     -514.434     415.616       6.787
  H     -519.143     415.543       5.917
  H     -518.562     416.579       4.636
  H     -518.543     417.141       6.290

 6  7  8  9  10  11  12  13  14  15  16  27  31  32  33  34  35 0
 6-311+G(2d,p)
 ****
 36  37 0
 6-311+G(2d,p)
 ****
 1  2  3  4  5  17  18  19  20  21  22  23  24  25 0
 3-21G
 ****
 26  28  29  30  38  39  40  41  42  43  44  45 0
 3-21G
 ****


