%nproc=1
%NoSave
%Mem=1900MB
#P OB98/GEN NMR

erre ene a

0 1
  C      993.082    -605.929      29.909
  O      993.512    -606.518      31.128
  H      993.678    -606.379      29.091
  H      993.277    -604.855      29.918
  H      992.029    -606.124      29.717
  P      992.691    -606.148      32.453
  C      994.283    -607.447      34.030
  O      993.759    -606.187      33.667
  C      995.424    -607.269      35.023
  O      996.497    -606.492      34.403
  C      995.044    -606.516      36.280
  O      994.323    -607.330      37.164
  C      996.421    -606.076      36.798
  O      997.048    -607.136      37.493
  C      997.144    -605.760      35.456
  N      997.183    -604.307      35.164
  C      997.651    -603.484      36.161
  O      997.981    -603.898      37.273
  N      997.676    -602.139      35.855
  C      997.229    -601.570      34.712
  O      997.199    -600.348      34.514
  C      996.716    -602.490      33.696
  C      996.721    -603.812      33.962
  O      991.448    -606.924      32.705
  O      992.383    -604.579      32.309
  H      997.845    -606.766      37.911
  H      991.449    -604.455      32.083
  H      998.020    -601.515      36.568
  H      996.317    -602.066      32.776
  H      996.329    -604.506      33.226
  H      998.193    -606.113      35.520
  H      996.344    -605.217      37.480
  H      994.468    -605.609      36.000
  H      995.852    -608.260      35.269
  H      994.671    -607.936      33.123
  H      993.492    -608.054      34.470
  P      993.890    -606.775      38.610
  C      992.634    -608.945      39.187
  O      993.642    -608.049      39.585
  O      992.795    -605.757      38.615
  O      995.262    -606.131      39.188
  H      995.110    -605.183      39.345
  H      992.561    -609.739      39.900
  H      992.875    -609.350      38.226
  H      991.699    -608.428      39.131

 6  7  8  9  10  11  12  13  14  15  16  26  31  32  33  34  35 0
 6-311+G(2d,p)
 ****
 36  37 0
 6-311+G(2d,p)
 ****
 1  2  3  4  5  17  18  19  20  21  22  23  24  25 0
 3-21G
 ****
 27  28  29  30  38  39  40  41  42  43  44  45 0
 3-21G
 ****


