%nproc=1
%NoSave
%Mem=1900MB
#P OB98/GEN NMR

erre ene a

0 1
  C      -18.994    -119.262    -281.816
  O      -18.700    -119.072    -283.187
  H      -19.645    -118.448    -281.484
  H      -18.080    -119.246    -281.215
  H      -19.517    -120.211    -281.675
  P      -17.545    -119.971    -283.843
  C      -16.116    -117.819    -283.783
  O      -16.552    -118.928    -284.565
  C      -15.596    -116.686    -284.668
  O      -14.531    -117.155    -285.524
  C      -16.637    -116.111    -285.618
  O      -17.694    -115.426    -284.993
  C      -15.765    -115.379    -286.628
  O      -15.380    -114.082    -286.172
  C      -14.524    -116.307    -286.696
  N      -14.484    -117.087    -287.923
  C      -13.278    -117.077    -288.617
  O      -12.290    -116.435    -288.250
  N      -13.245    -117.806    -289.775
  C      -14.296    -118.487    -290.320
  O      -14.207    -119.108    -291.376
  C      -15.558    -118.434    -289.562
  C      -15.595    -117.745    -288.420
  O      -18.012    -121.084    -284.736
  O      -16.686    -120.468    -282.586
  H      -14.840    -113.678    -286.881
  H      -16.095    -121.222    -282.835
  H      -12.373    -117.826    -290.282
  H      -16.410    -118.956    -289.972
  H      -16.511    -117.694    -287.842
  H      -13.603    -115.708    -286.643
  H      -16.264    -115.245    -287.590
  H      -17.100    -116.948    -286.163
  H      -15.180    -115.909    -284.015
  H      -15.309    -118.168    -283.129
  H      -16.946    -117.463    -283.159
  P      -19.212    -115.501    -285.477
  C      -19.468    -112.913    -285.765
  O      -19.925    -114.106    -285.136
  O      -19.953    -116.766    -285.177
  O      -19.046    -115.409    -287.084
  H      -19.753    -115.957    -287.479
  H      -20.052    -112.084    -285.424
  H      -19.569    -113.008    -286.826
  H      -18.440    -112.751    -285.518

 6  7  8  9  10  11  12  13  14  15  16  26  31  32  33  34  35 0
 6-311+G(2d,p)
 ****
 36  37 0
 6-311+G(2d,p)
 ****
 1  2  3  4  5  17  18  19  20  21  22  23  24  25 0
 3-21G
 ****
 27  28  29  30  38  39  40  41  42  43  44  45 0
 3-21G
 ****


