%nproc=1
%NoSave
%Mem=1900MB
#P OB98/GEN NMR

erre ene a

0 1
  C      482.175     304.307     -87.963
  O      483.403     304.267     -87.237
  P      483.957     305.649     -86.638
  C      483.881     304.890     -84.123
  O      483.427     305.774     -85.131
  C      483.795     305.541     -82.732
  O      484.485     306.812     -82.788
  C      482.394     305.867     -82.243
  O      482.423     306.059     -80.827
  C      482.122     307.190     -82.921
  O      481.033     307.901     -82.311
  C      483.502     307.883     -82.856
  N      483.782     308.767     -84.006
  C      482.842     309.723     -84.363
  O      481.780     309.900     -83.772
  N      483.135     310.484     -85.452
  C      484.280     310.417     -86.204
  O      484.450     311.055     -87.232
  C      485.302     309.482     -85.703
  C      485.018     308.705     -84.651
  O      483.129     306.771     -87.442
  O      485.430     305.820     -86.786
  H      481.021     308.789     -82.730
  H      483.714     307.191     -88.105
  H      482.435     311.141     -85.768
  H      486.257     309.445     -86.225
  H      485.760     308.000     -84.283
  H      483.586     308.507     -81.944
  H      481.837     307.025     -83.966
  H      481.639     305.114     -82.502
  H      484.327     304.918     -82.014
  H      484.905     304.586     -84.340
  H      483.272     303.978     -84.130
  P      482.080     304.795     -79.893
  C      484.144     304.993     -78.366
  O      483.471     304.236     -79.355
  O      481.133     303.801     -80.470
  O      481.463     305.498     -78.579
  H      480.946     304.841     -78.084
  H      484.733     304.321     -77.739
  H      483.426     305.538     -77.742
  H      484.813     305.710     -78.853
  H      481.928     303.322     -88.301
  H      482.280     304.958     -88.806
  H      481.396     304.671     -87.326

 3  4  5  6  7  8  9  10  11  12  13  23  28  29  30  31  32 0
 6-311+G(2d,p)
 ****
 33  34 0
 6-311+G(2d,p)
 ****
 1  2  14  15  16  17  18  19  20  21  22  24  25  26  27 0
 3-21G
 ****
 35  36  37  38  39  40  41  42  43  44  45 0
 3-21G
 ****


