%nproc=1
%NoSave
%Mem=1900MB
#P OB98/GEN NMR

erre ene a

0 1
  C      149.217     -53.088      76.147
  O      150.185     -52.064      75.905
  P      149.860     -50.560      76.360
  C      148.448     -49.745      74.356
  O      148.443     -50.130      75.726
  C      148.201     -48.236      74.212
  O      148.334     -47.826      72.819
  C      146.789     -47.821      74.670
  O      146.812     -46.507      75.244
  C      146.023     -47.748      73.364
  O      144.850     -46.942      73.487
  C      147.098     -47.189      72.432
  N      145.576     -45.076      68.010
  C      145.837     -44.533      69.228
  N      146.257     -45.156      70.354
  C      146.427     -46.472      70.132
  C      146.216     -47.168      68.948
  C      145.759     -46.414      67.850
  N      145.466     -46.967      66.626
  N      146.484     -48.510      69.106
  C      146.811     -48.636      70.378
  N      146.824     -47.428      71.032
  O      150.960     -49.571      76.171
  O      149.498     -50.729      77.914
  H      145.094     -46.149      73.996
  H      149.903     -49.993      78.418
  H      145.678     -43.463      69.305
  H      147.036     -49.571      70.873
  H      147.224     -46.110      72.563
  H      145.715     -48.759      73.056
  H      146.327     -48.515      75.386
  H      148.963     -47.692      74.789
  H      147.684     -50.304      73.815
  H      145.039     -46.367      65.937
  H      145.453     -47.972      66.537
  H      149.405     -50.039      73.899
  P      146.961     -46.438      76.849
  C      144.487     -47.027      77.475
  O      145.840     -47.428      77.438
  O      146.961     -45.043      77.391
  O      148.341     -47.218      77.081
  H      148.400     -48.086      76.645
  H      143.874     -47.873      77.782
  H      144.150     -46.689      76.489
  H      144.356     -46.219      78.206
  H      149.589     -54.024      75.785
  H      148.307     -52.846      75.639
  H      149.030     -53.161      77.198

 3  4  5  6  7  8  9  10  11  12  22  25  29  30  31  32 0
 6-311+G(2d,p)
 ****
 33  36  37 0
 6-311+G(2d,p)
 ****
 1  2  13  14  15  16  17  18  19  20  21  23  24  26 0
 3-21G
 ****
 27  28  34  35  38  39  40  41  42  43  44  45  46  47  48 0
 3-21G
 ****


