%nproc=1
%NoSave
%Mem=1900MB
#P OB98/GEN NMR

erre ene a

0 1
  C     1132.643    1266.115    -220.630
  O     1133.687    1266.738    -219.904
  H     1133.070    1265.314    -221.235
  H     1132.144    1266.823    -221.286
  H     1131.914    1265.672    -219.935
  P     1133.328    1268.025    -219.016
  C     1135.099    1269.607    -220.036
  O     1134.682    1268.885    -218.889
  C     1136.621    1269.560    -220.195
  O     1137.029    1268.182    -220.398
  C     1137.154    1270.384    -221.372
  O     1138.468    1270.848    -221.042
  C     1137.230    1269.328    -222.468
  O     1137.989    1269.759    -223.558
  C     1137.748    1268.144    -221.654
  N     1137.572    1266.869    -222.344
  C     1138.315    1266.687    -223.509
  O     1139.079    1267.570    -223.908
  N     1138.191    1265.515    -224.203
  C     1137.317    1264.627    -223.797
  N     1137.213    1263.492    -224.541
  C     1136.460    1264.810    -222.605
  C     1136.646    1265.935    -221.932
  O     1132.650    1267.745    -217.718
  O     1132.413    1268.922    -219.979
  H     1137.940    1269.121    -224.294
  H     1131.482    1268.852    -219.711
  H     1135.734    1264.047    -222.333
  H     1136.060    1266.165    -221.033
  H     1138.822    1268.262    -221.426
  H     1136.213    1269.115    -222.849
  H     1136.510    1271.230    -221.642
  H     1137.070    1269.900    -219.241
  H     1137.820    1263.406    -225.366
  H     1134.764    1270.635    -219.906
  H     1136.560    1262.742    -224.352
  H     1134.625    1269.200    -220.944
  P     1139.017    1272.297    -221.447
  C     1141.063    1271.802    -222.926
  O     1140.604    1272.213    -221.660
  O     1138.573    1273.398    -220.554
  O     1138.462    1272.540    -222.939
  H     1138.318    1273.488    -223.065
  H     1142.133    1271.790    -222.931
  H     1140.711    1272.484    -223.672
  H     1140.694    1270.820    -223.138

 6  7  8  9  10  11  12  13  14  15  16  26  30  31  32  33  35 0
 6-311+G(2d,p)
 ****
 37  38 0
 6-311+G(2d,p)
 ****
 1  2  3  4  5  17  18  19  20  21  22  23  24  25 0
 3-21G
 ****
 27  28  29  34  36  39  40  41  42  43  44  45  46 0
 3-21G
 ****


