%nproc=1
%NoSave
%Mem=1900MB
#P OB98/GEN NMR

erre ene a

0 1
  C     -725.488    1712.897    -259.531
  O     -726.869    1712.828    -259.201
  P     -727.409    1711.373    -258.744
  C     -728.765    1711.869    -256.587
  O     -727.546    1711.372    -257.141
  C     -728.877    1711.531    -255.106
  O     -728.826    1710.083    -254.887
  C     -727.789    1712.141    -254.231
  O     -728.363    1712.478    -252.973
  C     -726.806    1711.017    -254.063
  O     -725.948    1711.226    -252.950
  C     -727.779    1709.849    -253.909
  N     -727.045    1705.318    -251.780
  C     -727.606    1706.460    -251.276
  N     -728.106    1706.364    -250.006
  N     -727.689    1707.582    -251.927
  C     -727.199    1707.527    -253.172
  C     -726.615    1706.440    -253.822
  C     -726.516    1705.206    -253.059
  O     -726.000    1704.169    -253.471
  N     -726.252    1706.756    -255.106
  C     -726.553    1708.039    -255.204
  N     -727.185    1708.545    -254.090
  O     -726.144    1710.423    -259.012
  O     -728.622    1710.911    -259.500
  H     -725.264    1710.527    -252.951
  H     -726.269    1709.937    -259.846
  H     -726.982    1704.470    -251.234
  H     -726.365    1708.646    -256.077
  H     -728.247    1709.829    -252.906
  H     -726.184    1710.872    -254.946
  H     -728.109    1705.519    -249.465
  H     -727.301    1713.040    -254.674
  H     -728.572    1707.175    -249.619
  H     -729.858    1711.883    -254.748
  H     -729.609    1711.422    -257.138
  H     -728.833    1712.946    -256.782
  P     -728.748    1713.987    -252.686
  C     -731.257    1713.354    -252.429
  O     -730.305    1714.167    -253.081
  O     -727.971    1714.778    -253.848
  O     -728.369    1714.492    -251.339
  H     -727.618    1715.630    -253.489
  H     -732.209    1713.856    -252.433
  H     -730.970    1713.118    -251.403
  H     -731.361    1712.424    -253.007
  H     -725.239    1713.898    -259.817
  H     -725.282    1712.232    -260.343
  H     -724.904    1712.614    -258.681

 3  4  5  6  7  8  9  10  11  12  23  26  30  31 0
 6-311+G(2d,p)
 ****
 33  35  36  37  38 0
 6-311+G(2d,p)
 ****
 1  2  13  14  15  16  17  18  19  20  21  22  24  25 0
 3-21G
 ****
 27  28  29  32  34  39  40  41  42  43  44  45  46  47  48  49 0
 3-21G
 ****


