%nproc=1
%NoSave
%Mem=1900MB
#P OB98/GEN NMR

erre ene a

0 1
  C     -340.872    -407.736      73.504
  O     -339.754    -407.953      74.364
  P     -339.555    -409.392      75.042
  C     -341.747    -409.309      76.386
  O     -340.998    -410.006      75.397
  C     -342.656    -410.245      77.197
  O     -343.665    -410.850      76.348
  C     -341.912    -411.388      77.914
  O     -342.589    -411.606      79.160
  C     -342.137    -412.551      76.969
  O     -341.904    -413.805      77.595
  C     -343.572    -412.282      76.524
  N     -343.928    -412.996      75.305
  C     -345.158    -413.664      75.296
  O     -345.838    -413.714      76.318
  N     -345.555    -414.276      74.131
  C     -344.743    -414.345      73.125
  N     -345.184    -414.943      71.984
  C     -343.362    -413.809      73.171
  C     -343.044    -413.134      74.269
  O     -338.556    -409.451      76.149
  O     -339.086    -410.305      73.799
  H     -341.930    -414.513      76.911
  H     -338.448    -410.976      74.121
  H     -342.689    -413.961      72.337
  H     -342.061    -412.696      74.391
  H     -344.285    -412.560      77.312
  H     -341.450    -412.471      76.116
  H     -340.859    -411.167      78.107
  H     -343.188    -409.630      77.941
  H     -346.121    -415.325      71.980
  H     -342.361    -408.547      75.900
  H     -344.625    -414.996      71.146
  H     -341.049    -408.769      77.044
  P     -342.316    -410.592      80.375
  C     -341.094    -412.169      82.049
  O     -341.001    -411.084      81.147
  O     -343.477    -411.009      81.411
  O     -342.420    -409.137      80.054
  H     -343.677    -410.249      81.986
  H     -340.087    -412.546      82.252
  H     -341.686    -412.991      81.625
  H     -341.543    -411.833      82.986
  H     -340.852    -406.730      73.141
  H     -341.778    -407.901      74.049
  H     -340.824    -408.415      72.678

 3  4  5  6  7  8  9  10  11  12  13  23  27  28  29  30  32 0
 6-311+G(2d,p)
 ****
 34  35 0
 6-311+G(2d,p)
 ****
 1  2  14  15  16  17  18  19  20  21  22  24  25  26 0
 3-21G
 ****
 31  33  36  37  38  39  40  41  42  43  44  45  46 0
 3-21G
 ****


