%nproc=1
%NoSave
%Mem=1900MB
#P OB98/GEN NMR

erre ene a

0 1
  C        4.975     -29.335      97.013
  O        6.226     -29.249      96.330
  P        7.055     -30.596      96.065
  C        6.268     -31.585      93.820
  O        7.233     -30.772      94.481
  C        6.909     -32.365      92.673
  O        6.049     -33.418      92.198
  C        7.207     -31.507      91.455
  O        8.333     -30.676      91.681
  C        7.387     -32.565      90.379
  O        8.714     -33.116      90.413
  C        6.360     -33.638      90.804
  N        5.158     -33.642      89.984
  C        5.243     -34.340      88.774
  O        6.300     -34.873      88.438
  N        4.131     -34.402      87.971
  C        3.036     -33.810      88.340
  N        1.965     -33.908      87.507
  C        2.910     -33.055      89.600
  C        4.001     -33.006      90.362
  O        6.569     -31.806      96.791
  O        8.537     -30.196      96.537
  H        8.701     -33.890      89.815
  H        8.989     -30.998      96.869
  H        1.974     -32.586      89.866
  H        3.997     -32.467      91.304
  H        6.809     -34.639      90.742
  H        7.233     -32.157      89.375
  H        6.333     -30.885      91.218
  H        7.840     -32.816      93.046
  H        2.082     -34.422      86.642
  H        5.462     -30.953      93.437
  H        1.056     -33.527      87.728
  H        5.816     -32.261      94.553
  P        8.285     -29.182      91.103
  C        7.556     -28.048      93.318
  O        8.550     -28.177      92.320
  O        6.727     -28.971      90.783
  O        9.121     -28.954      89.886
  H        6.629     -28.400      90.000
  H        8.007     -27.593      94.203
  H        7.140     -29.019      93.595
  H        6.756     -27.397      92.956
  H        4.553     -28.356      97.109
  H        5.128     -29.754      97.985
  H        4.307     -29.959      96.457

 3  4  5  6  7  8  9  10  11  12  13  23  27  28  29  30  32 0
 6-311+G(2d,p)
 ****
 34  35 0
 6-311+G(2d,p)
 ****
 1  2  14  15  16  17  18  19  20  21  22  24  25  26 0
 3-21G
 ****
 31  33  36  37  38  39  40  41  42  43  44  45  46 0
 3-21G
 ****


