%nproc=1
%NoSave
%Mem=1900MB
#P OB98/GEN NMR

erre ene a

0 1
  C     -772.826     -35.162    -741.831
  O     -773.165     -34.995    -743.195
  H     -773.608     -34.741    -741.191
  H     -772.738     -36.233    -741.621
  H     -771.867     -34.677    -741.621
  P     -773.439     -33.496    -743.681
  C     -771.571     -33.168    -745.454
  O     -772.018     -32.893    -744.131
  C     -770.045     -33.148    -745.510
  O     -769.509     -34.305    -744.819
  C     -769.463     -33.197    -746.911
  O     -769.501     -31.936    -747.554
  C     -768.018     -33.624    -746.600
  O     -767.265     -32.474    -746.183
  C     -768.218     -34.591    -745.415
  N     -765.547     -38.979    -745.155
  C     -765.295     -37.735    -744.666
  N     -766.044     -36.619    -744.792
  C     -767.172     -36.873    -745.477
  C     -767.559     -38.075    -746.046
  C     -766.691     -39.156    -745.871
  N     -766.943     -40.417    -746.383
  N     -768.772     -37.954    -746.672
  C     -769.124     -36.690    -746.499
  N     -768.178     -35.985    -745.790
  O     -773.754     -32.713    -742.321
  O     -774.545     -33.340    -744.670
  H     -767.410     -31.790    -746.865
  H     -774.442     -32.032    -742.497
  H     -764.382     -37.627    -744.094
  H     -770.044     -36.250    -746.856
  H     -767.462     -34.423    -744.633
  H     -767.517     -34.065    -747.455
  H     -769.938     -33.973    -747.516
  H     -769.701     -32.251    -744.969
  H     -771.963     -32.408    -746.134
  H     -766.384     -41.196    -746.048
  H     -767.805     -40.552    -746.899
  H     -771.955     -34.146    -745.755
  P     -770.652     -31.699    -748.649
  C     -771.722     -29.737    -747.308
  O     -771.888     -31.054    -747.838
  O     -771.171     -33.183    -748.969
  O     -770.226     -30.982    -749.877
  H     -771.564     -33.226    -749.849
  H     -772.616     -29.442    -746.799
  H     -771.524     -29.053    -748.107
  H     -770.902     -29.730    -746.621

 6  7  8  9  10  11  12  13  14  15  25  28  32  33  34  35 0
 6-311+G(2d,p)
 ****
 36  39  40 0
 6-311+G(2d,p)
 ****
 1  2  3  4  5  16  17  18  19  20  21  22  23  24 0
 3-21G
 ****
 26  27  29  30  31  37  38  41  42  43  44  45  46  47  48 0
 3-21G
 ****


