%nproc=1
%NoSave
%Mem=1900MB
#P OB98/GEN NMR

erre ene a

0 1
  C     -434.842       9.893     177.927
  O     -434.035       8.747     178.114
  H     -434.786      10.226     176.888
  H     -435.878       9.635     178.159
  H     -434.519      10.697     178.595
  P     -432.462       8.925     177.848
  C     -431.604       7.293     179.674
  O     -431.776       7.542     178.288
  C     -431.442       5.798     179.925
  O     -432.690       5.114     179.686
  C     -430.424       5.108     179.024
  O     -429.091       5.313     179.479
  C     -430.845       3.654     179.177
  O     -430.343       3.128     180.420
  C     -432.376       3.769     179.239
  N     -434.404       0.233     176.138
  C     -433.908       0.159     177.396
  N     -433.404       1.149     178.162
  C     -433.464       2.325     177.519
  C     -433.964       2.566     176.247
  C     -434.449       1.451     175.539
  N     -434.894       1.536     174.227
  N     -433.844       3.908     175.919
  C     -433.260       4.452     176.965
  N     -433.018       3.543     177.958
  O     -432.023       9.953     179.000
  O     -432.100       9.426     176.489
  H     -429.370       3.159     180.368
  H     -431.999      10.856     178.630
  H     -433.907      -0.831     177.840
  H     -432.996       5.502     177.047
  H     -432.819       3.076     179.962
  H     -430.471       3.009     178.378
  H     -430.543       5.407     177.974
  H     -431.183       5.654     180.984
  H     -432.479       7.657     180.224
  H     -434.764       0.676     173.704
  H     -434.654       2.401     173.757
  H     -430.716       7.835     180.021
  P     -427.948       5.510     178.375
  C     -426.610       7.477     179.402
  O     -426.658       6.075     179.149
  O     -428.473       6.769     177.539
  O     -427.707       4.337     177.484
  H     -428.541       6.539     176.588
  H     -425.704       7.715     179.920
  H     -427.449       7.760     180.003
  H     -426.640       8.008     178.474

 6  7  8  9  10  11  12  13  14  15  25  28  32  33  34  35 0
 6-311+G(2d,p)
 ****
 36  39  40 0
 6-311+G(2d,p)
 ****
 1  2  3  4  5  16  17  18  19  20  21  22  23  24 0
 3-21G
 ****
 26  27  29  30  31  37  38  41  42  43  44  45  46  47  48 0
 3-21G
 ****


