%nproc=1
%NoSave
%Mem=1900MB
#P OB98/GEN NMR

erre ene a

0 1
  C      -29.836      36.435       6.031
  O      -28.909      37.506       6.100
  P      -29.142      38.757       5.120
  C      -27.796      37.474       3.308
  O      -28.966      38.216       3.620
  C      -27.866      36.919       1.884
  O      -29.020      36.039       1.779
  C      -28.003      37.988       0.788
  O      -27.282      37.505      -0.351
  C      -29.499      37.990       0.532
  O      -29.875      38.600      -0.690
  C      -29.798      36.498       0.651
  N      -34.231      35.494      -1.685
  C      -32.977      35.655      -2.165
  N      -31.843      35.913      -1.480
  C      -32.094      35.991      -0.162
  C      -33.319      35.867       0.470
  C      -34.427      35.605      -0.352
  N      -35.707      35.449       0.140
  N      -33.188      36.036       1.833
  C      -31.904      36.260       2.021
  N      -31.201      36.221       0.849
  O      -27.831      39.642       5.347
  O      -30.395      39.534       5.376
  H      -29.622      39.543      -0.684
  H      -28.043      40.595       5.344
  H      -32.870      35.566      -3.242
  H      -31.439      36.467       2.975
  H      -29.466      35.942      -0.233
  H      -29.996      38.548       1.335
  H      -27.599      38.962       1.080
  H      -26.973      36.308       1.708
  H      -27.705      36.632       4.000
  H      -36.453      35.465      -0.540
  H      -35.871      35.738       1.097
  H      -26.916      38.113       3.438
  P      -26.216      38.471      -1.061
  C      -27.979      39.265      -2.752
  O      -27.116      39.640      -1.696
  O      -25.843      37.611      -2.358
  O      -25.050      38.879      -0.228
  H      -26.639      37.314      -2.833
  H      -28.596      40.126      -3.020
  H      -28.631      38.445      -2.437
  H      -27.392      38.966      -3.624
  H      -29.559      35.678       6.734
  H      -29.833      36.023       5.043
  H      -30.816      36.796       6.264

 3  4  5  6  7  8  9  10  11  12  22  25  29  30  31  32 0
 6-311+G(2d,p)
 ****
 33  36  37 0
 6-311+G(2d,p)
 ****
 1  2  13  14  15  16  17  18  19  20  21  23  24  26 0
 3-21G
 ****
 27  28  34  35  38  39  40  41  42  43  44  45  46  47  48 0
 3-21G
 ****


