%nproc=1
%NoSave
%Mem=1900MB
#P OB98/GEN NMR

erre ene a

0 1
  C     -506.064     169.617    -795.357
  O     -505.753     170.862    -794.772
  H     -505.215     168.941    -795.207
  H     -506.221     169.728    -796.433
  H     -506.949     169.178    -794.891
  P     -506.806     172.064    -794.884
  C     -507.180     171.979    -792.344
  O     -507.793     171.884    -793.625
  C     -508.127     171.495    -791.243
  O     -508.372     170.069    -791.402
  C     -507.587     171.715    -789.820
  O     -508.602     172.292    -789.003
  C     -507.269     170.307    -789.338
  O     -507.287     170.188    -787.922
  C     -508.343     169.500    -790.081
  N     -508.046     168.078    -790.098
  C     -508.833     167.270    -789.257
  O     -509.717     167.785    -788.571
  N     -508.555     165.931    -789.171
  C     -507.561     165.439    -789.844
  N     -507.331     164.112    -789.704
  C     -506.690     166.257    -790.721
  C     -506.987     167.550    -790.803
  O     -507.482     172.183    -796.206
  O     -505.972     173.376    -794.488
  H     -506.806     170.953    -787.538
  H     -506.427     174.166    -794.865
  H     -505.869     165.793    -791.249
  H     -506.401     168.228    -791.416
  H     -509.331     169.650    -789.627
  H     -506.274     170.014    -789.690
  H     -506.703     172.352    -789.798
  H     -509.096     171.989    -791.382
  H     -507.943     163.594    -789.087
  H     -506.893     173.027    -792.174
  H     -506.569     163.620    -790.144
  H     -506.279     171.359    -792.346
  P     -508.539     173.881    -788.797
  C     -510.925     174.183    -789.775
  O     -509.551     174.549    -789.851
  O     -507.083     174.270    -789.358
  O     -508.710     174.306    -787.380
  H     -506.509     174.530    -788.623
  H     -511.475     174.702    -790.532
  H     -511.311     174.444    -788.812
  H     -511.022     173.128    -789.924

 6  7  8  9  10  11  12  13  14  15  16  26  30  31  32  33  35 0
 6-311+G(2d,p)
 ****
 37  38 0
 6-311+G(2d,p)
 ****
 1  2  3  4  5  17  18  19  20  21  22  23  24  25 0
 3-21G
 ****
 27  28  29  34  36  39  40  41  42  43  44  45  46 0
 3-21G
 ****


