%nproc=1
%NoSave
%Mem=1900MB
#P OB98/GEN NMR

erre ene a

0 1
  C     -329.049     339.080    -237.409
  O     -329.820     339.940    -238.240
  P     -329.743     339.811    -239.838
  C     -328.193     340.728    -241.678
  O     -328.353     340.492    -240.281
  C     -327.558     342.098    -241.922
  O     -328.565     343.123    -241.713
  C     -326.394     342.401    -240.979
  O     -325.409     343.149    -241.704
  C     -326.993     343.304    -239.919
  O     -325.994     344.151    -239.325
  C     -328.075     344.037    -240.713
  N     -329.672     347.354    -237.131
  C     -328.487     347.221    -237.772
  N     -328.125     346.303    -238.691
  C     -329.156     345.492    -238.979
  C     -330.423     345.513    -238.421
  C     -330.673     346.496    -237.448
  N     -331.885     346.640    -236.810
  N     -331.200     344.506    -238.954
  C     -330.434     343.905    -239.829
  N     -329.186     344.474    -239.893
  O     -330.941     340.317    -240.570
  O     -329.487     338.259    -240.109
  H     -325.605     344.686    -240.049
  H     -329.985     337.964    -240.899
  H     -327.727     347.946    -237.494
  H     -330.715     343.063    -240.438
  H     -327.666     344.915    -241.236
  H     -327.432     342.690    -239.118
  H     -325.937     341.495    -240.552
  H     -327.238     342.153    -242.968
  H     -329.180     340.698    -242.149
  H     -332.002     347.441    -236.221
  H     -332.676     346.111    -237.166
  H     -327.578     339.931    -242.116
  P     -323.884     342.649    -241.520
  C     -322.230     342.692    -239.504
  O     -323.534     342.958    -239.989
  O     -322.978     343.236    -242.564
  O     -324.061     341.064    -241.607
  H     -324.974     340.790    -241.352
  H     -322.203     342.925    -238.439
  H     -321.497     343.315    -240.024
  H     -321.980     341.636    -239.650
  H     -329.233     339.317    -236.382
  H     -328.009     339.213    -237.625
  H     -329.324     338.063    -237.595

 3  4  5  6  7  8  9  10  11  12  22  25  29  30  31  32 0
 6-311+G(2d,p)
 ****
 33  36  37 0
 6-311+G(2d,p)
 ****
 1  2  13  14  15  16  17  18  19  20  21  23  24  26 0
 3-21G
 ****
 27  28  34  35  38  39  40  41  42  43  44  45  46  47  48 0
 3-21G
 ****


