%nproc=1
%NoSave
%Mem=1900MB
#P OB98/GEN NMR

erre ene a

0 1
  C       25.734    -141.980     109.062
  O       25.237    -140.984     108.165
  P       23.955    -141.280     107.245
  C       22.758    -139.202     108.135
  O       23.178    -139.901     106.969
  C       22.403    -137.734     107.871
  O       23.585    -136.896     107.921
  C       21.721    -137.469     106.525
  O       20.816    -136.383     106.751
  C       22.883    -137.033     105.654
  O       22.465    -136.330     104.491
  C       23.710    -136.218     106.658
  N       25.105    -136.083     106.249
  C       25.410    -135.036     105.378
  O       24.516    -134.310     104.941
  N       26.713    -134.865     104.980
  C       27.613    -135.725     105.346
  N       28.882    -135.517     104.901
  C       27.318    -136.896     106.195
  C       26.058    -137.003     106.614
  O       23.086    -142.396     107.725
  O       24.585    -141.638     105.814
  H       22.286    -135.398     104.742
  H       23.997    -142.263     105.351
  H       28.095    -137.601     106.451
  H       25.742    -137.824     107.245
  H       23.287    -135.211     106.778
  H       23.449    -137.912     105.325
  H       21.195    -138.339     106.126
  H       21.749    -137.405     108.688
  H       29.037    -134.718     104.299
  H       23.563    -139.247     108.877
  H       29.629    -136.183     105.029
  H       21.894    -139.720     108.568
  P       19.243    -136.611     106.927
  C       19.164    -135.064     108.963
  O       18.665    -135.312     107.661
  O       18.863    -137.907     107.565
  O       18.640    -136.496     105.446
  H       17.751    -136.893     105.428
  H       18.870    -134.058     109.270
  H       20.257    -135.134     108.979
  H       18.743    -135.788     109.664
  H       26.586    -141.597     109.583
  H       26.016    -142.850     108.507
  H       24.971    -142.238     109.767

 3  4  5  6  7  8  9  10  11  12  13  23  27  28  29  30  32 0
 6-311+G(2d,p)
 ****
 34  35 0
 6-311+G(2d,p)
 ****
 1  2  14  15  16  17  18  19  20  21  22  24  25  26 0
 3-21G
 ****
 31  33  36  37  38  39  40  41  42  43  44  45  46 0
 3-21G
 ****


