%nproc=1
%NoSave
%Mem=1900MB
#P OB98/GEN NMR

erre ene a

0 1
  C      231.164     311.496     222.138
  O      232.538     311.234     222.356
  H      230.592     311.054     222.958
  H      230.827     311.057     221.196
  H      230.985     312.578     222.133
  P      233.565     311.556     221.162
  C      235.262     312.942     222.533
  O      234.235     312.968     221.543
  C      235.542     314.349     223.073
  O      234.318     314.946     223.561
  C      236.494     314.374     224.263
  O      237.827     314.038     223.936
  C      236.191     315.726     224.896
  O      236.927     316.800     224.317
  C      234.683     315.896     224.584
  N      233.859     315.751     225.778
  C      234.211     316.554     226.859
  O      235.169     317.334     226.840
  N      233.452     316.412     227.985
  C      232.424     315.522     228.150
  O      231.803     315.413     229.202
  C      232.116     314.679     226.981
  C      232.832     314.830     225.867
  O      232.993     311.512     219.778
  O      234.758     310.515     221.401
  H      236.588     317.627     224.716
  H      235.322     310.428     220.592
  H      233.683     316.993     228.777
  H      231.309     313.962     227.076
  H      232.626     314.220     224.990
  H      234.495     316.892     224.162
  H      236.415     315.724     225.964
  H      236.159     313.618     224.979
  H      235.916     314.969     222.252
  H      236.173     312.553     222.061
  H      234.972     312.268     223.349
  P      238.582     312.765     224.542
  C      239.570     311.976     222.270
  O      238.729     311.667     223.374
  O      238.154     312.311     225.906
  O      240.091     313.322     224.669
  H      240.490     312.912     225.456
  H      239.568     311.158     221.580
  H      240.567     312.147     222.618
  H      239.207     312.856     221.781

 6  7  8  9  10  11  12  13  14  15  16  26  31  32  33  34  35 0
 6-311+G(2d,p)
 ****
 36  37 0
 6-311+G(2d,p)
 ****
 1  2  3  4  5  17  18  19  20  21  22  23  24  25 0
 3-21G
 ****
 27  28  29  30  38  39  40  41  42  43  44  45 0
 3-21G
 ****


