%nproc=1
%NoSave
%Mem=1900MB
#P OB98/GEN NMR

erre ene a

0 1
  C      -79.082     252.511    -116.785
  O      -78.200     251.444    -116.493
  H      -79.302     252.501    -117.856
  H      -78.616     253.466    -116.529
  H      -80.018     252.391    -116.231
  P      -77.735     251.302    -114.964
  C      -75.540     250.219    -115.823
  O      -76.646     250.121    -114.938
  C      -74.438     249.249    -115.406
  O      -74.086     249.442    -114.017
  C      -74.803     247.778    -115.563
  O      -74.607     247.341    -116.898
  C      -73.835     247.126    -114.585
  O      -72.522     246.975    -115.161
  C      -73.812     248.142    -113.432
  N      -74.685     248.489    -108.472
  C      -73.617     248.936    -109.222
  N      -72.605     249.515    -108.538
  N      -73.539     248.817    -110.520
  C      -74.609     248.187    -111.063
  C      -75.735     247.715    -110.429
  C      -75.820     247.881    -108.994
  O      -76.768     247.567    -108.281
  N      -76.609     247.153    -111.324
  C      -75.998     247.253    -112.488
  N      -74.772     247.858    -112.379
  O      -79.007     250.642    -114.246
  O      -77.326     252.571    -114.298
  H      -72.595     246.481    -115.995
  H      -79.042     250.944    -113.319
  H      -74.695     248.626    -107.477
  H      -76.396     246.905    -113.430
  H      -72.828     248.200    -112.955
  H      -74.165     246.128    -114.294
  H      -72.459     249.335    -107.555
  H      -75.832     247.595    -115.232
  H      -71.808     249.825    -109.079
  H      -73.548     249.490    -116.002
  H      -75.149     251.241    -115.792
  H      -75.873     249.995    -116.842
  P      -75.908     246.917    -117.741
  C      -74.199     245.439    -119.030
  O      -75.368     246.242    -119.092
  O      -76.497     248.319    -118.239
  O      -76.913     246.123    -116.978
  H      -77.423     248.209    -118.526
  H      -73.971     245.065    -120.006
  H      -74.365     244.619    -118.363
  H      -73.380     246.028    -118.674

 6  7  8  9  10  11  12  13  14  15  26  29  33  34 0
 6-311+G(2d,p)
 ****
 36  38  39  40  41 0
 6-311+G(2d,p)
 ****
 1  2  3  4  5  16  17  18  19  20  21  22  23  24  25 0
 3-21G
 ****
 27  28  30  31  32  35  37  42  43  44  45  46  47 0
 3-21G
 ****
 48  49 0
 3-21G
 ****


