%nproc=1
%NoSave
%Mem=1900MB
#P OB98/GEN NMR

erre ene a

0 1
  C     -114.348     -45.231     339.051
  O     -115.216     -46.214     339.587
  H     -113.942     -45.601     338.104
  H     -113.520     -45.046     339.742
  H     -114.896     -44.303     338.865
  P     -115.929     -45.851     340.977
  C     -115.142     -45.757     343.460
  O     -114.790     -45.974     342.103
  C     -114.500     -46.827     344.355
  O     -115.104     -48.118     344.044
  C     -112.982     -46.985     344.143
  O     -112.411     -47.443     345.383
  C     -112.929     -48.104     343.116
  O     -111.628     -48.642     343.017
  C     -114.028     -49.010     343.672
  N     -112.943     -53.417     341.317
  C     -112.287     -52.720     342.267
  N     -112.644     -51.560     342.856
  C     -113.825     -51.130     342.383
  C     -114.615     -51.740     341.420
  C     -114.130     -52.937     340.869
  N     -114.794     -53.648     339.894
  N     -115.764     -50.998     341.193
  C     -115.666     -49.965     342.004
  N     -114.510     -49.997     342.736
  O     -116.872     -47.119     341.247
  O     -116.695     -44.570     340.992
  H     -111.320     -48.972     343.888
  H     -117.774     -46.934     340.926
  H     -111.340     -53.151     342.601
  H     -116.390     -49.161     342.096
  H     -113.705     -49.538     344.576
  H     -113.195     -47.735     342.121
  H     -112.489     -46.061     343.834
  H     -114.739     -46.608     345.401
  H     -116.232     -45.804     343.548
  H     -114.796     -44.767     343.773
  H     -114.367     -54.489     339.542
  H     -115.668     -53.293     339.539
  P     -112.160     -46.381     346.566
  C     -110.500     -44.410     347.036
  O     -110.890     -45.477     346.183
  O     -111.560     -47.312     347.729
  O     -113.366     -45.644     347.046
  H     -111.771     -46.922     348.599
  H     -109.641     -43.921     346.626
  H     -110.262     -44.797     348.005
  H     -111.303     -43.708     347.120

 6  7  8  9  10  11  12  13  14  15  25  28  32  33  34  35 0
 6-311+G(2d,p)
 ****
 36  37  40 0
 6-311+G(2d,p)
 ****
 1  2  3  4  5  16  17  18  19  20  21  22  23  24 0
 3-21G
 ****
 26  27  29  30  31  38  39 41  42  43  44  45  46  47  48 0
 3-21G
 ****


