%nproc=1
%NoSave
%Mem=1900MB
#P OB98/GEN NMR

erre ene a

0 1
  C     -137.638       6.904     240.495
  O     -136.884       6.114     239.602
  P     -135.903       6.770     238.516
  C     -134.089       6.294     240.280
  O     -134.592       7.226     239.332
  C     -133.336       5.149     239.590
  O     -132.425       5.697     238.597
  C     -132.516       4.266     240.538
  O     -132.562       2.943     239.996
  C     -131.122       4.846     240.400
  O     -130.105       3.950     240.829
  C     -131.103       5.203     238.908
  N     -130.065       6.174     238.585
  C     -129.240       5.877     237.497
  O     -129.361       4.800     236.905
  N     -128.266       6.773     237.136
  C     -128.065       7.826     237.868
  N     -127.092       8.682     237.459
  C     -128.826       8.114     239.100
  C     -129.807       7.260     239.383
  O     -136.515       7.834     237.670
  O     -135.370       5.513     237.681
  H     -129.235       4.309     240.545
  H     -136.064       5.207     237.040
  H     -128.583       8.971     239.704
  H     -130.422       7.393     240.268
  H     -130.935       4.304     238.297
  H     -131.039       5.758     241.007
  H     -132.874       4.275     241.569
  H     -134.072       4.539     239.054
  H     -126.602       8.454     236.600
  H     -134.936       5.874     240.828
  H     -126.910       9.567     237.906
  H     -133.444       6.803     241.001
  P     -132.304       1.653     240.913
  C     -134.661       1.644     241.908
  O     -133.279       1.775     242.178
  O     -130.870       1.396     241.251
  O     -132.937       0.436     240.081
  H     -132.603      -0.406     240.442
  H     -135.194       1.461     242.848
  H     -134.849       0.809     241.226
  H     -135.036       2.572     241.460
  H     -138.221       6.268     241.129
  H     -138.288       7.547     239.940
  H     -136.977       7.495     241.093

 3  4  5  6  7  8  9  10  11  12  13  23  27  28  29  30  32 0
 6-311+G(2d,p)
 ****
 34  35 0
 6-311+G(2d,p)
 ****
 1  2  14  15  16  17  18  19  20  21  22  24  25  26 0
 3-21G
 ****
 31  33  36  37  38  39  40  41  42  43  44  45  46 0
 3-21G
 ****


