%nproc=1
%NoSave
%Mem=1900MB
#P OB98/GEN NMR

erre ene a

0 1
  C       63.194     -44.348      22.404
  O       63.932     -43.360      23.110
  P       63.121     -42.185      23.841
  C       63.405     -40.929      21.590
  O       62.552     -41.221      22.687
  C       62.729     -39.977      20.604
  O       61.646     -40.678      19.935
  C       62.128     -38.721      21.244
  O       62.250     -37.658      20.291
  C       60.662     -39.082      21.398
  O       59.832     -37.931      21.525
  C       60.447     -39.896      20.125
  N       55.342     -40.117      19.962
  C       56.202     -39.089      19.801
  N       57.549     -39.109      19.857
  C       57.996     -40.350      20.114
  C       57.238     -41.488      20.337
  C       55.843     -41.342      20.248
  N       54.965     -42.389      20.402
  N       58.053     -42.570      20.597
  C       59.280     -42.095      20.533
  N       59.295     -40.766      20.220
  O       64.288     -41.318      24.510
  O       62.125     -42.633      24.854
  H       60.171     -37.391      22.263
  H       64.248     -41.403      25.483
  H       55.748     -38.124      19.590
  H       60.181     -42.667      20.706
  H       60.318     -39.257      19.242
  H       60.525     -39.699      22.293
  H       62.594     -38.435      22.193
  H       63.460     -39.702      19.834
  H       63.638     -41.863      21.069
  H       53.993     -42.233      20.189
  H       55.332     -43.334      20.426
  H       64.339     -40.494      21.957
  P       62.178     -36.161      20.859
  C       59.645     -36.096      20.306
  O       60.655     -35.899      21.275
  O       62.376     -35.259      19.550
  O       63.204     -35.853      21.900
  H       62.776     -34.404      19.792
  H       58.742     -36.458      20.804
  H       59.946     -36.825      19.545
  H       59.424     -35.143      19.818
  H       63.869     -45.058      21.974
  H       62.625     -43.881      21.627
  H       62.532     -44.849      23.079

 3  4  5  6  7  8  9  10  11  12  22  25  29  30  31  32 0
 6-311+G(2d,p)
 ****
 33  36  37 0
 6-311+G(2d,p)
 ****
 1  2  13  14  15  16  17  18  19  20  21  23  24  26 0
 3-21G
 ****
 27  28  34  35  38  39  40  41  42  43  44  45  46  47  48 0
 3-21G
 ****


