%nproc=1
%NoSave
%Mem=1900MB
#P OB98/GEN NMR

erre ene a

0 1
  C       22.287      59.727    -249.626
  O       21.600      59.075    -250.681
  P       20.705      59.984    -251.659
  C       18.267      59.133    -251.154
  O       19.274      60.112    -250.946
  C       16.880      59.769    -251.020
  O       16.897      60.766    -249.972
  C       16.392      60.502    -252.261
  O       15.925      59.599    -253.257
  C       15.317      61.403    -251.671
  O       14.099      60.669    -251.471
  C       15.936      61.786    -250.309
  N       16.549      63.112    -250.301
  C       15.915      64.076    -249.523
  O       14.900      63.854    -248.865
  N       16.486      65.327    -249.542
  C       17.557      65.712    -250.293
  O       17.998      66.852    -250.303
  C       18.163      64.657    -251.121
  C       17.641      63.429    -251.089
  O       20.468      58.962    -252.871
  O       21.363      61.272    -252.030
  H       20.509      58.035    -252.578
  H       14.342      59.860    -250.974
  H       16.058      66.039    -248.964
  H       19.012      64.926    -251.738
  H       18.064      62.641    -251.701
  H       15.170      61.755    -249.523
  H       15.081      62.262    -252.312
  H       17.200      61.115    -252.673
  H       16.166      58.985    -250.729
  H       18.379      58.339    -250.412
  H       18.389      58.697    -252.150
  P       15.670      60.218    -254.719
  C       13.079      60.065    -254.393
  O       14.204      60.864    -254.688
  O       15.499      58.884    -255.592
  O       16.760      61.123    -255.190
  H       14.958      58.208    -255.143
  H       12.265      60.713    -254.067
  H       13.296      59.347    -253.596
  H       12.770      59.527    -255.290
  H       22.838      59.006    -249.060
  H       21.580      60.216    -248.989
  H       22.961      60.451    -250.033

 3  4  5  6  7  8  9  10  11  12  13  24  28  29  30  31  32 0
 6-311+G(2d,p)
 ****
 33  34 0
 6-311+G(2d,p)
 ****
 1  2  14  15  16  17  18  19  20  21  22  23  25  26  27 0
 3-21G
 ****
 35  36  37  38  39  40  41  42  43  44  45 0
 3-21G
 ****


