%nproc=1
%NoSave
%Mem=1900MB
#P OB98/GEN NMR

erre ene a

0 1
  C     -107.081    -142.818     152.127
  O     -106.616    -141.479     152.239
  P     -107.504    -140.366     152.978
  C     -105.680    -139.272     154.428
  O     -106.526    -139.130     153.290
  C     -104.648    -138.146     154.476
  O     -103.701    -138.332     153.390
  C     -105.258    -136.755     154.324
  O     -104.528    -135.837     155.144
  C     -105.008    -136.392     152.871
  O     -104.958    -134.966     152.688
  C     -103.691    -137.125     152.596
  N     -102.235    -135.542     147.927
  C     -102.233    -134.920     149.127
  N     -102.655    -135.393     150.318
  C     -103.074    -136.665     150.208
  C     -103.131    -137.433     149.051
  C     -102.688    -136.818     147.863
  N     -102.682    -137.455     146.644
  N     -103.643    -138.687     149.321
  C     -103.871    -138.684     150.617
  N     -103.530    -137.490     151.198
  O     -108.279    -140.857     154.160
  O     -108.462    -139.791     151.835
  H     -105.053    -134.794     151.731
  H     -109.351    -139.608     152.198
  H     -101.835    -133.904     149.127
  H     -104.287    -139.510     151.180
  H     -102.820    -136.524     152.899
  H     -105.820    -136.783     152.247
  H     -106.325    -136.725     154.587
  H     -104.084    -138.225     155.419
  H     -105.163    -140.234     154.353
  H     -102.238    -136.980     145.869
  H     -102.856    -138.454     146.625
  H     -106.293    -139.281     155.340
  P     -105.404    -134.969     156.185
  C     -103.992    -135.592     158.281
  O     -104.383    -134.595     157.366
  O     -106.671    -135.670     156.571
  O     -105.609    -133.609     155.361
  H     -104.891    -133.476     154.697
  H     -103.329    -135.140     159.032
  H     -103.439    -136.383     157.767
  H     -104.867    -136.018     158.789
  H     -106.354    -143.406     151.606
  H     -108.004    -142.831     151.586
  H     -107.235    -143.225     153.105

 3  4  5  6  7  8  9  10  11  12  22  25  29  30  31  32 0
 6-311+G(2d,p)
 ****
 33  36  37 0
 6-311+G(2d,p)
 ****
 1  2  13  14  15  16  17  18  19  20  21  23  24  26 0
 3-21G
 ****
 27  28  34  35  38  39  40  41  42  43  44  45  46  47  48 0
 3-21G
 ****


