%nproc=1
%NoSave
%Mem=1900MB
#P OB98/GEN NMR

erre ene a

0 1
  C      340.773     300.361    -176.300
  O      339.756     300.931    -175.496
  P      338.214     300.766    -175.888
  C      336.375     302.467    -176.414
  O      337.745     302.130    -176.593
  C      336.097     303.906    -176.848
  O      336.708     304.816    -175.894
  C      336.641     304.273    -178.239
  O      335.718     305.209    -178.807
  C      337.945     304.980    -177.911
  O      338.403     305.815    -178.968
  C      337.543     305.722    -176.643
  N      341.767     308.598    -176.491
  C      340.862     308.383    -177.470
  N      339.776     307.581    -177.441
  C      339.668     306.969    -176.251
  C      340.530     307.068    -175.168
  C      341.622     307.946    -175.314
  N      342.531     308.204    -174.316
  N      340.113     306.236    -174.145
  C      339.023     305.658    -174.602
  N      338.682     306.116    -175.845
  O      337.324     300.295    -174.786
  O      338.233     299.720    -177.100
  H      338.684     305.245    -179.711
  H      337.908     298.851    -176.792
  H      341.025     308.928    -178.394
  H      338.450     304.899    -174.081
  H      336.956     306.622    -176.861
  H      338.725     304.238    -177.705
  H      336.781     303.417    -178.902
  H      335.014     304.073    -176.805
  H      336.136     302.358    -175.353
  H      343.193     308.945    -174.480
  H      342.302     307.945    -173.359
  H      335.745     301.774    -176.982
  P      335.939     305.736    -180.305
  C      336.824     307.925    -181.292
  O      336.882     307.023    -180.200
  O      334.694     305.917    -181.107
  O      336.904     304.630    -180.951
  H      336.876     304.702    -181.924
  H      337.446     307.545    -182.110
  H      337.212     308.897    -180.972
  H      335.799     308.050    -181.648
  H      341.730     300.580    -175.874
  H      340.720     300.771    -177.287
  H      340.638     299.301    -176.347

 3  4  5  6  7  8  9  10  11  12  22  25  29  30  31  32 0
 6-311+G(2d,p)
 ****
 33  36  37 0
 6-311+G(2d,p)
 ****
 1  2  13  14  15  16  17  18  19  20  21  23  24  26 0
 3-21G
 ****
 27  28  34  35  38  39  40  41  42  43  44  45  46  47  48 0
 3-21G
 ****


