%nproc=1
%NoSave
%Mem=1900MB
#P OB98/GEN NMR

erre ene a

0 1
  C      342.999    -526.812     343.361
  O      344.402    -526.633     343.139
  P      345.367    -527.794     343.670
  C      347.521    -528.876     342.692
  O      346.763    -527.691     342.885
  C      348.064    -528.935     341.264
  O      346.999    -529.067     340.294
  C      348.824    -527.675     340.856
  O      350.107    -527.642     341.456
  C      348.828    -527.827     339.340
  O      349.850    -528.754     338.929
  C      347.442    -528.435     339.068
  N      345.519    -525.883     335.066
  C      346.504    -526.800     335.172
  N      346.960    -527.432     336.271
  C      346.276    -527.040     337.355
  C      345.242    -526.117     337.412
  C      344.867    -525.517     336.200
  N      343.873    -524.575     336.105
  N      344.790    -525.974     338.710
  C      345.553    -526.776     339.425
  N      346.458    -527.453     338.655
  O      344.702    -529.129     343.088
  O      345.488    -527.841     345.162
  H      349.837    -528.793     337.950
  H      344.282    -529.635     343.811
  H      346.999    -527.060     334.233
  H      345.486    -526.903     340.503
  H      347.474    -529.211     338.295
  H      349.015    -526.885     338.813
  H      348.252    -526.779     341.142
  H      348.718    -529.806     341.181
  H      346.901    -529.757     342.886
  H      343.716    -524.137     335.207
  H      343.438    -524.234     336.950
  H      348.335    -528.895     343.430
  P      350.497    -526.348     342.319
  C      352.095    -526.140     344.314
  O      351.835    -526.784     343.084
  O      349.396    -526.397     343.484
  O      350.571    -525.072     341.553
  H      349.300    -527.298     343.845
  H      353.014    -526.557     344.740
  H      351.272    -526.313     345.015
  H      352.235    -525.069     344.155
  H      342.465    -525.974     342.963
  H      342.811    -526.888     344.412
  H      342.672    -527.707     342.874

 3  4  5  6  7  8  9  10  11  12  22  25  29  30  31  32 0
 6-311+G(2d,p)
 ****
 33  36  37 0
 6-311+G(2d,p)
 ****
 1  2  13  14  15  16  17  18  19  20  21  23  24  26 0
 3-21G
 ****
 27  28  34  35  38  39  40  41  42  43  44  45  46  47  48 0
 3-21G
 ****


