%nproc=1
%NoSave
%Mem=1900MB
#P OB98/GEN NMR

erre ene a

0 1
  C      -84.766     116.841     -31.253
  O      -83.384     116.459     -31.244
  P      -82.189     117.465     -31.613
  C      -82.159     117.051     -34.158
  O      -82.381     117.992     -33.118
  C      -81.690     117.730     -35.451
  O      -81.304     116.723     -36.435
  C      -82.745     118.636     -36.112
  O      -82.044     119.772     -36.627
  C      -83.266     117.746     -37.231
  O      -83.944     118.454     -38.252
  C      -81.955     117.087     -37.671
  N      -82.099     115.925     -38.540
  C      -82.667     116.124     -39.805
  O      -83.085     117.226     -40.153
  N      -82.769     115.048     -40.655
  C      -82.353     113.880     -40.280
  N      -82.475     112.861     -41.173
  C      -81.767     113.621     -38.953
  C      -81.670     114.676     -38.146
  O      -80.830     116.899     -31.355
  O      -82.435     118.767     -30.716
  H      -81.573     119.136     -30.442
  H      -84.036     117.860     -39.019
  H      -81.426     112.633     -38.683
  H      -81.223     114.575     -37.162
  H      -81.319     117.833     -38.160
  H      -83.966     117.021     -36.805
  H      -83.520     118.982     -35.420
  H      -80.785     118.306     -35.220
  H      -82.873     113.080     -42.079
  H      -83.097     116.525     -34.358
  H      -82.177     111.915     -40.990
  H      -81.419     116.316     -33.823
  P      -82.437     121.242     -36.121
  C      -84.023     121.880     -38.086
  O      -83.886     121.588     -36.710
  O      -81.486     122.166     -37.026
  O      -82.203     121.527     -34.672
  H      -81.326     123.010     -36.564
  H      -84.896     121.348     -38.471
  H      -83.146     121.576     -38.663
  H      -84.179     122.955     -38.209
  H      -85.370     116.003     -30.974
  H      -85.040     117.166     -32.235
  H      -84.920     117.639     -30.557

 3  4  5  6  7  8  9  10  11  12  13  24  27  28  29  30  32 0
 6-311+G(2d,p)
 ****
 34  35 0
 6-311+G(2d,p)
 ****
 1  2  14  15  16  17  18  19  20  21  22  23  25  26 0
 3-21G
 ****
 31  33  36  37  38  39  40  41  42  43  44  45  46 0
 3-21G
 ****


