%nproc=1
%NoSave
%Mem=1900MB
#P OB98/GEN NMR

erre ene a

0 1
  C     1561.532    -364.137    -895.210
  O     1562.552    -363.216    -894.920
  H     1561.932    -364.912    -895.890
  H     1560.702    -363.635    -895.720
  H     1561.171    -364.628    -894.310
  P     1562.237    -362.128    -893.770
  C     1561.016    -360.545    -895.440
  O     1562.093    -360.716    -894.530
  C     1560.971    -359.102    -895.930
  O     1560.896    -358.185    -894.820
  C     1562.187    -358.677    -896.750
  O     1562.078    -359.076    -898.100
  C     1562.099    -357.161    -896.630
  O     1561.073    -356.663    -897.500
  C     1561.669    -356.993    -895.160
  N     1565.411    -353.964    -893.570
  C     1564.475    -353.777    -894.570
  N     1564.571    -352.615    -895.250
  N     1563.550    -354.642    -894.890
  C     1563.594    -355.751    -894.110
  C     1564.465    -356.067    -893.100
  C     1565.482    -355.098    -892.760
  O     1566.312    -355.205    -891.870
  N     1564.192    -357.299    -892.540
  C     1563.177    -357.740    -893.260
  N     1562.779    -356.851    -894.240
  O     1563.623    -361.988    -892.990
  O     1561.120    -362.476    -892.850
  H     1561.031    -355.688    -897.370
  H     1563.440    -361.850    -892.050
  H     1566.117    -353.271    -893.380
  H     1562.680    -358.694    -893.100
  H     1561.010    -356.128    -895.010
  H     1563.027    -356.660    -896.890
  H     1565.284    -351.927    -895.100
  H     1563.125    -359.028    -896.300
  H     1563.871    -352.430    -895.970
  H     1560.039    -358.974    -896.520
  H     1560.072    -360.779    -894.920
  H     1561.140    -361.236    -896.280
  P     1563.020    -360.283    -898.590
  C     1565.166    -358.804    -898.470
  O     1564.295    -359.574    -899.290
  O     1562.222    -360.894    -899.850
  O     1563.323    -361.320    -897.560
  H     1562.501    -361.823    -900.000
  H     1565.956    -358.401    -899.069
  H     1565.580    -359.428    -897.706
  H     1564.617    -358.004    -898.019

 6  7  8  9  10  11  12  13  14  15  26  29  33  34 0
 6-311+G(2d,p)
 ****
 36  38  39  40  41 0
 6-311+G(2d,p)
 ****
 1  2  3  4  5  16  17  18  19  20  21  22  23  24  25 0
 3-21G
 ****
 27  28  30  31  32  35  37  42  43  44  45  46  47 0
 3-21G
 ****
 48  49 0
 3-21G
 ****


