%nproc=1
%NoSave
%Mem=1900MB
#P OB98/GEN NMR

erre ene a

0 1
  C       -8.244     -48.212     -14.428
  O       -9.203     -49.001     -15.102
  P       -8.805     -49.873     -16.382
  C       -9.700     -48.208     -18.113
  O       -8.550     -48.871     -17.607
  C      -10.197     -48.861     -19.402
  O      -11.510     -48.336     -19.731
  C       -9.283     -48.633     -20.614
  O       -9.284     -49.842     -21.380
  C       -9.987     -47.521     -21.369
  O       -9.619     -47.482     -22.741
  C      -11.452     -47.875     -21.095
  N      -12.347     -46.748     -21.314
  C      -13.001     -46.691     -22.547
  O      -12.714     -47.491     -23.438
  N      -13.951     -45.719     -22.739
  C      -14.092     -44.778     -21.855
  N      -15.090     -43.875     -22.052
  C      -13.238     -44.672     -20.656
  C      -12.427     -45.701     -20.427
  O       -9.730     -51.004     -16.690
  O       -7.334     -50.414     -16.047
  H       -7.320     -51.386     -16.151
  H       -8.715     -47.110     -22.816
  H      -13.305     -43.805     -20.015
  H      -11.779     -45.729     -19.557
  H      -11.773     -48.709     -21.733
  H       -9.736     -46.553     -20.921
  H       -8.256     -48.385     -20.330
  H      -10.314     -49.935     -19.217
  H      -15.681     -44.004     -22.864
  H       -9.430     -47.170     -18.319
  H      -15.475     -43.321     -21.289
  H      -10.490     -48.203     -17.353
  P       -7.874     -50.434     -21.871
  C       -8.499     -49.792     -24.306
  O       -7.525     -49.766     -23.285
  O       -8.284     -51.928     -22.299
  O       -6.780     -50.482     -20.855
  H       -7.498     -52.503     -22.236
  H       -8.070     -49.358     -25.211
  H       -9.371     -49.200     -24.015
  H       -8.805     -50.820     -24.522
  H       -8.709     -47.711     -13.605
  H       -7.839     -47.488     -15.104
  H       -7.457     -48.840     -14.064

 3  4  5  6  7  8  9  10  11  12  13  24  27  28  29  30  32 0
 6-311+G(2d,p)
 ****
 34  35 0
 6-311+G(2d,p)
 ****
 1  2  14  15  16  17  18  19  20  21  22  23  25  26 0
 3-21G
 ****
 31  33  36  37  38  39  40  41  42  43  44  45  46 0
 3-21G
 ****


