%nproc=1
%NoSave
%Mem=1900MB
#P OB98/GEN NMR

erre ene a

0 1
  C     -354.826      78.031       7.848
  O     -355.237      78.212       6.507
  H     -354.724      76.959       8.043
  H     -355.577      78.442       8.530
  H     -353.861      78.516       8.020
  P     -355.407      79.727       6.003
  C     -356.820      81.708       6.925
  O     -356.713      80.300       6.737
  C     -358.026      82.023       7.807
  O     -357.727      81.664       9.177
  C     -358.407      83.497       7.844
  O     -359.146      83.883       6.697
  C     -359.211      83.564       9.136
  O     -360.570      83.159       8.931
  C     -358.490      82.545      10.030
  N     -358.388      85.418      14.240
  C     -359.411      84.876      13.542
  N     -359.351      84.106      12.434
  C     -358.073      83.897      12.071
  C     -356.931      84.388      12.681
  C     -357.121      85.183      13.824
  N     -356.083      85.764      14.518
  N     -355.803      83.998      11.984
  C     -356.257      83.276      10.979
  N     -357.620      83.184      10.995
  O     -355.874      79.544       4.481
  O     -354.186      80.577       6.117
  H     -360.570      82.183       8.894
  H     -355.097      79.597       3.893
  H     -360.405      85.097      13.918
  H     -355.644      82.811      10.215
  H     -359.196      81.917      10.592
  H     -359.235      84.578       9.540
  H     -357.510      84.120       7.956
  H     -358.872      81.408       7.474
  H     -356.949      82.193       5.953
  H     -355.897      82.075       7.389
  H     -356.295      86.339      15.316
  H     -355.144      85.681      14.151
  P     -359.361      85.444       6.417
  C     -360.798      87.362       7.427
  O     -360.441      85.990       7.472
  O     -360.147      85.462       5.021
  O     -358.101      86.244       6.357
  H     -359.534      85.656       4.289
  H     -361.522      87.567       8.188
  H     -361.213      87.591       6.468
  H     -359.928      87.963       7.592

 6  7  8  9  10  11  12  13  14  15  25  28  32  33  34  35 0
 6-311+G(2d,p)
 ****
 36  37  40 0
 6-311+G(2d,p)
 ****
 1  2  3  4  5  16  17  18  19  20  21  22  23  24 0
 3-21G
 ****
 26  27  29  30  31  38  39 41  42  43  44  45  46  47  48 0
 3-21G
 ****


