%nproc=1
%NoSave
%Mem=1900MB
#P OB98/GEN NMR

erre ene a

0 1
  C     -289.388     177.404    -506.373
  O     -289.436     175.996    -506.270
  H     -289.061     177.675    -507.380
  H     -288.669     177.801    -505.653
  H     -290.375     177.842    -506.196
  P     -290.182     175.382    -504.993
  C     -291.562     173.877    -506.589
  O     -291.588     174.793    -505.506
  C     -292.702     172.865    -506.460
  O     -292.518     172.116    -505.230
  C     -294.096     173.506    -506.411
  O     -295.008     172.682    -507.139
  C     -294.446     173.480    -504.933
  O     -295.853     173.484    -504.705
  C     -293.748     172.202    -504.481
  N     -295.714     171.172    -499.956
  C     -296.218     170.945    -501.224
  N     -297.436     170.365    -501.296
  N     -295.586     171.264    -502.324
  C     -294.362     171.804    -502.096
  C     -293.756     172.082    -500.895
  C     -294.478     171.756    -499.686
  O     -294.095     171.949    -498.538
  N     -292.528     172.666    -501.086
  C     -292.395     172.740    -502.399
  N     -293.480     172.222    -503.053
  O     -290.603     176.681    -504.157
  O     -289.367     174.443    -504.166
  H     -296.227     172.701    -505.161
  H     -290.134     176.691    -503.302
  H     -296.249     170.918    -499.144
  H     -291.547     173.159    -502.917
  H     -294.339     171.305    -504.686
  H     -294.017     174.359    -504.438
  H     -297.957     170.051    -500.493
  H     -294.115     174.520    -506.819
  H     -297.812     170.155    -502.214
  H     -292.626     172.149    -507.283
  H     -290.606     173.346    -506.586
  H     -291.660     174.428    -507.533
  P     -295.971     173.415    -508.192
  C     -294.628     172.798    -510.318
  O     -295.092     173.836    -509.471
  O     -296.294     174.813    -507.480
  O     -297.222     172.659    -508.499
  H     -297.214     174.819    -507.164
  H     -294.062     173.220    -511.122
  H     -295.464     172.261    -510.714
  H     -294.008     172.130    -509.757

 6  7  8  9  10  11  12  13  14  15  26  29  33  34 0
 6-311+G(2d,p)
 ****
 36  38  39  40  41 0
 6-311+G(2d,p)
 ****
 1  2  3  4  5  16  17  18  19  20  21  22  23  24  25 0
 3-21G
 ****
 27  28  30  31  32  35  37  42  43  44  45  46  47 0
 3-21G
 ****
 48  49 0
 3-21G
 ****


