%nproc=1
%NoSave
%Mem=1900MB
#P OB98/GEN NMR

erre ene a

0 1
  C      200.413    -475.844     -40.644
  O      200.930    -476.139     -39.362
  H      201.250    -475.725     -41.336
  H      199.849    -474.909     -40.618
  H      199.776    -476.657     -41.002
  P      199.907    -476.461     -38.170
  C      200.318    -478.481     -36.634
  O      200.756    -477.186     -37.014
  C      201.228    -479.059     -35.552
  O      202.529    -479.330     -36.133
  C      201.432    -478.123     -34.354
  O      201.482    -478.914     -33.166
  C      202.795    -477.510     -34.616
  O      203.443    -477.096     -33.415
  C      203.518    -478.648     -35.339
  N      208.217    -476.794     -35.302
  C      207.443    -477.281     -34.266
  N      207.988    -477.251     -33.032
  N      206.235    -477.757     -34.428
  C      205.821    -477.741     -35.718
  C      206.492    -477.284     -36.827
  C      207.823    -476.748     -36.636
  O      208.549    -476.288     -37.507
  N      205.722    -477.410     -37.962
  C      204.592    -477.940     -37.534
  N      204.597    -478.151     -36.179
  O      198.664    -477.190     -38.572
  O      199.580    -475.028     -37.541
  H      202.818    -476.513     -32.934
  H      198.718    -474.698     -37.864
  H      209.139    -476.431     -35.118
  H      203.741    -478.185     -38.154
  H      203.964    -479.368     -34.641
  H      202.688    -476.636     -35.269
  H      208.919    -476.912     -32.833
  H      200.650    -477.365     -34.267
  H      207.447    -477.623     -32.259
  H      200.818    -480.022     -35.231
  H      200.342    -479.126     -37.519
  H      199.287    -478.423     -36.266
  P      200.156    -479.055     -32.277
  C      199.091    -481.215     -31.363
  O      200.264    -480.411     -31.427
  O      198.866    -478.858     -33.004
  O      200.365    -477.928     -31.153
  H      199.483    -477.597     -30.874
  H      199.287    -482.085     -30.772
  H      198.807    -481.511     -32.351
  H      198.297    -480.653     -30.917

 6  7  8  9  10  11  12  13  14  15  26  29  33  34 0
 6-311+G(2d,p)
 ****
 36  38  39  40  41 0
 6-311+G(2d,p)
 ****
 1  2  3  4  5  16  17  18  19  20  21  22  23  24  25 0
 3-21G
 ****
 27  28  30  31  32  35  37  42  43  44  45  46  47 0
 3-21G
 ****
 48  49 0
 3-21G
 ****


