%nproc=1
%NoSave
%Mem=1900MB
#P OB98/GEN NMR

erre ene a

0 1
  C     -276.187    -971.053     807.169
  O     -275.923    -970.993     805.786
  H     -277.147    -971.564     807.315
  H     -276.255    -970.052     807.605
  H     -275.406    -971.635     807.678
  P     -274.701    -970.070     805.289
  C     -276.201    -967.968     805.277
  O     -275.383    -968.842     804.509
  C     -276.872    -966.914     804.387
  O     -275.889    -966.029     803.828
  C     -277.603    -967.509     803.186
  O     -278.756    -968.237     803.516
  C     -277.704    -966.309     802.244
  O     -278.833    -965.490     802.501
  C     -276.413    -965.531     802.577
  N     -275.426    -965.607     801.503
  C     -275.617    -964.721     800.452
  O     -276.554    -963.923     800.387
  N     -274.700    -964.800     799.427
  C     -273.689    -965.696     799.343
  O     -272.928    -965.745     798.379
  C     -273.557    -966.646     800.478
  C     -274.421    -966.548     801.491
  O     -273.631    -970.771     804.508
  O     -274.169    -969.391     806.634
  H     -278.605    -964.948     803.295
  H     -273.269    -969.015     806.519
  H     -274.809    -964.150     798.672
  H     -272.756    -967.371     800.442
  H     -274.350    -967.231     802.342
  H     -276.647    -964.470     802.756
  H     -277.763    -966.632     801.201
  H     -276.917    -968.222     802.695
  H     -277.562    -966.325     804.999
  H     -275.556    -967.471     806.005
  H     -276.958    -968.555     805.817
  P     -279.215    -969.557     802.741
  C     -280.250    -968.280     800.729
  O     -280.478    -969.183     801.794
  O     -279.271    -970.827     803.546
  O     -278.028    -969.722     801.663
  H     -277.874    -970.681     801.530
  H     -281.162    -968.125     800.191
  H     -279.512    -968.686     800.069
  H     -279.904    -967.346     801.121

 6  7  8  9  10  11  12  13  14  15  16  26  31  32  33  34  35 0
 6-311+G(2d,p)
 ****
 36  37 0
 6-311+G(2d,p)
 ****
 1  2  3  4  5  17  18  19  20  21  22  23  24  25 0
 3-21G
 ****
 27  28  29  30  38  39  40  41  42  43  44  45 0
 3-21G
 ****


