%nproc=1
%NoSave
%Mem=1900MB
#P OB98/GEN NMR

erre ene a

0 1
  C      878.523    -899.100     124.495
  O      879.053    -898.320     123.438
  H      878.067    -900.000     124.069
  H      877.745    -898.540     125.022
  H      879.304    -899.390     125.190
  P      879.961    -897.080     123.835
  C      878.101    -895.240     123.781
  O      878.995    -896.020     124.577
  C      876.881    -894.830     124.602
  O      877.331    -894.180     125.819
  C      875.940    -893.840     123.880
  O      874.585    -894.170     124.251
  C      876.324    -892.510     124.458
  O      875.299    -891.520     124.371
  C      876.656    -892.900     125.915
  N      877.458    -891.910     126.597
  C      876.812    -891.040     127.454
  O      875.628    -891.110     127.771
  N      877.600    -890.060     128.010
  C      878.916    -889.830     127.769
  O      879.561    -888.930     128.275
  C      879.566    -890.780     126.838
  C      878.808    -891.760     126.291
  O      880.259    -896.370     122.433
  O      881.211    -897.390     124.599
  H      881.070    -896.730     122.025
  H      875.622    -890.690     124.779
  H      877.158    -889.410     128.644
  H      880.603    -890.640     126.601
  H      879.240    -892.460     125.588
  H      875.714    -893.070     126.483
  H      877.206    -892.120     123.967
  H      876.039    -893.850     122.795
  H      876.347    -895.720     124.915
  H      877.783    -895.840     122.925
  H      878.629    -894.350     123.414
  P      873.650    -894.830     123.137
  C      872.630    -892.570     122.273
  O      873.432    -893.700     122.008
  O      872.257    -894.890     123.905
  O      874.175    -896.140     122.649
  H      872.109    -894.130     124.499
  H      872.606    -891.939     121.409
  H      873.040    -892.028     123.099
  H      871.636    -892.886     122.511

 6  7  8  9  10  11  12  13  14  15  16  27  31  32  33  34  35 0
 6-311+G(2d,p)
 ****
 36  37 0
 6-311+G(2d,p)
 ****
 1  2  3  4  5  17  18  19  20  21  22  23  24  25 0
 3-21G
 ****
 26  28  29  30  38  39  40  41  42  43  44  45 0
 3-21G
 ****


