%nproc=1
%NoSave
%Mem=1900MB
#P OB98/GEN NMR

erre ene a

0 1
  C      236.261    -166.284    -526.273
  O      235.632    -166.627    -525.051
  P      234.085    -167.057    -525.108
  C      233.558    -164.821    -523.885
  O      233.249    -165.699    -524.965
  C      233.558    -163.367    -524.364
  O      234.500    -163.204    -525.439
  C      232.224    -162.898    -524.912
  O      231.325    -162.608    -523.852
  C      232.643    -161.675    -525.714
  O      232.702    -160.503    -524.885
  C      234.050    -162.069    -526.217
  N      234.080    -162.356    -527.641
  C      233.925    -161.250    -528.492
  O      233.757    -160.127    -528.011
  N      233.919    -161.455    -529.845
  C      234.061    -162.657    -530.312
  N      234.051    -162.805    -531.669
  C      234.199    -163.851    -529.459
  C      234.197    -163.633    -528.139
  O      233.857    -167.786    -523.706
  O      233.726    -167.923    -526.270
  H      233.395    -160.684    -524.219
  H      233.131    -168.435    -523.765
  H      234.315    -164.835    -529.897
  H      234.298    -164.448    -527.439
  H      234.768    -161.260    -526.017
  H      231.938    -161.459    -526.523
  H      231.790    -163.652    -525.580
  H      233.881    -162.735    -523.529
  H      233.944    -161.967    -532.227
  H      234.551    -165.066    -523.497
  H      234.174    -163.695    -532.131
  H      232.823    -164.969    -523.086
  P      230.067    -163.576    -523.657
  C      228.778    -162.021    -525.239
  O      229.171    -163.352    -524.965
  O      229.219    -162.811    -522.529
  O      230.348    -164.993    -523.280
  H      228.465    -163.361    -522.252
  H      228.312    -161.982    -526.221
  H      229.651    -161.357    -525.232
  H      228.052    -161.682    -524.491
  H      237.281    -166.020    -526.087
  H      235.753    -165.453    -526.715
  H      236.224    -167.120    -526.940

 3  4  5  6  7  8  9  10  11  12  13  21  23  27  28  29  30  32 0
 6-311+G(2d,p)
 ****
 34  35 0
 6-311+G(2d,p)
 ****
 1  2  14  15  16  17  18  19  20  22  24  25  26 0
 3-21G
 ****
 31  33  36  37  38  39  40  41  42  43  44  45  46 0
 3-21G
 ****


