%nproc=1
%NoSave
%Mem=1900MB
#P OB98/GEN NMR

erre ene a

0 1
  C      108.525    -123.531    -256.864
  O      108.333    -124.806    -256.257
  P      107.799    -126.108    -257.007
  C      109.611    -127.652    -255.887
  O      108.241    -127.395    -256.170
  C      110.146    -126.684    -254.821
  O      109.203    -126.651    -253.705
  C      111.500    -127.124    -254.254
  O      112.418    -126.052    -254.075
  C      111.109    -127.914    -253.018
  O      112.165    -128.058    -252.080
  C      109.876    -127.155    -252.532
  N      108.274    -128.450    -247.861
  C      109.346    -127.663    -248.230
  N      110.105    -127.163    -247.232
  N      109.658    -127.399    -249.472
  C      108.866    -128.022    -250.372
  C      107.785    -128.839    -250.129
  C      107.417    -129.082    -248.751
  O      106.466    -129.756    -248.367
  N      107.222    -129.282    -251.300
  C      107.969    -128.751    -252.245
  N      108.980    -127.972    -251.732
  O      108.029    -126.153    -258.481
  O      106.205    -126.059    -256.767
  H      111.765    -128.177    -251.198
  H      105.796    -126.465    -257.561
  H      108.067    -128.600    -246.886
  H      107.821    -128.885    -253.311
  H      110.142    -126.299    -251.904
  H      110.832    -128.924    -253.344
  H      109.996    -127.423    -246.266
  H      112.019    -127.789    -254.955
  H      111.008    -126.777    -247.511
  H      110.197    -125.680    -255.252
  H      110.146    -127.499    -256.832
  H      109.759    -128.691    -255.589
  P      113.944    -125.955    -254.542
  C      113.815    -123.422    -254.925
  O      114.475    -124.473    -254.246
  O      113.891    -126.001    -256.142
  O      114.826    -127.042    -254.022
  H      114.376    -126.786    -256.463
  H      114.426    -122.519    -254.852
  H      112.844    -123.233    -254.460
  H      113.675    -123.669    -255.981
  H      108.890    -122.840    -256.134
  H      107.593    -123.178    -257.255
  H      109.235    -123.618    -257.660

 3  4  5  6  7  8  9  10  11  12  23  26  30  31 0
 6-311+G(2d,p)
 ****
 33  35  36  37  38 0
 6-311+G(2d,p)
 ****
 1  2  13  14  15  16  17  18  19  20  21  22  24  25 0
 3-21G
 ****
 27  28  29  32  34  39  40  41  42  43  44  45  46  47  48  49 0
 3-21G
 ****


