%nproc=1
%NoSave
%Mem=1900MB
#P OB98/GEN NMR

erre ene a

0 1
  C     -111.746     -68.983       7.466
  O     -110.766     -68.335       8.251
  H     -111.678     -70.059       7.642
  H     -111.576     -68.790       6.404
  H     -112.746     -68.646       7.751
  P     -110.608     -66.746       8.127
  C     -109.506     -65.152       6.422
  O     -110.045     -66.450       6.654
  C     -109.659     -64.774       4.945
  O     -108.745     -65.600       4.182
  C     -111.082     -65.016       4.420
  O     -111.648     -63.870       3.789
  C     -110.936     -66.282       3.585
  O     -111.889     -66.421       2.552
  C     -109.480     -66.218       3.109
  N     -108.908     -67.520       2.775
  C     -108.994     -67.932       1.448
  O     -109.488     -67.278       0.533
  N     -108.462     -69.168       1.179
  C     -107.880     -70.007       2.080
  O     -107.416     -71.099       1.777
  C     -107.840     -69.525       3.468
  C     -108.350     -68.323       3.749
  O     -109.852     -66.084       9.229
  O     -112.116     -66.213       8.048
  H     -111.677     -67.240       2.059
  H     -112.378     -65.844       8.912
  H     -108.507     -69.471       0.219
  H     -107.394     -70.171       4.212
  H     -108.336     -67.936       4.762
  H     -109.394     -65.581       2.228
  H     -111.056     -67.147       4.250
  H     -111.773     -65.215       5.247
  H     -109.350     -63.731       4.814
  H     -108.449     -65.172       6.702
  H     -110.028     -64.421       7.048
  P     -112.368     -62.672       4.558
  C     -114.849     -62.010       5.087
  O     -113.933     -62.993       4.628
  O     -111.977     -61.300       4.124
  O     -111.872     -62.860       6.082
  H     -111.816     -61.963       6.470
  H     -115.842     -62.408       5.062
  H     -114.794     -61.149       4.455
  H     -114.601     -61.732       6.090

 6  7  8  9  10  11  12  13  14  15  16  26  31  32  33  34  35 0
 6-311+G(2d,p)
 ****
 36  37 0
 6-311+G(2d,p)
 ****
 1  2  3  4  5  17  18  19  20  21  22  23  24  25 0
 3-21G
 ****
 27  28  29  30  38  39  40  41  42  43  44  45 0
 3-21G
 ****


