%nproc=1
%NoSave
%Mem=1900MB
#P OB98/GEN NMR

erre ene a

0 1
  C       49.826     241.139     191.147
  O       49.102     241.521     189.993
  H       50.893     241.241     190.942
  H       49.611     240.098     191.395
  H       49.566     241.783     191.995
  P       47.512     241.674     190.137
  C       47.286     243.930     188.858
  O       47.017     242.533     188.871
  C       47.227     244.460     187.423
  O       48.293     243.822     186.651
  C       45.905     244.165     186.701
  O       45.600     245.276     185.845
  C       46.237     242.956     185.843
  O       45.387     242.796     184.715
  C       47.694     243.265     185.468
  N       48.419     242.077     185.017
  C       48.832     242.043     183.686
  O       48.701     242.970     182.888
  N       49.419     240.869     183.281
  C       49.605     239.753     184.045
  O       50.117     238.720     183.615
  C       49.141     239.847     185.438
  C       48.580     240.983     185.850
  O       47.358     242.694     191.359
  O       46.758     240.403     190.356
  H       47.315     242.211     192.208
  H       45.595     241.921     184.315
  H       49.722     240.828     182.318
  H       49.265     238.977     186.069
  H       48.203     241.079     186.870
  H       47.730     244.033     184.685
  H       46.179     242.040     186.447
  H       45.060     243.974     187.372
  H       47.439     245.534     187.436
  H       48.281     244.110     189.268
  H       46.548     244.445     189.483
  P       44.050     245.604     185.585
  C       44.101     247.965     186.733
  O       43.952     247.205     185.536
  O       43.405     245.209     186.998
  O       43.489     244.881     184.405
  H       43.997     245.407     187.750
  H       44.006     249.007     186.508
  H       45.066     247.778     187.157
  H       43.343     247.681     187.433

 6  7  8  9  10  11  12  13  14  15  16  27  31  32  33  34  35 0
 6-311+G(2d,p)
 ****
 36  37 0
 6-311+G(2d,p)
 ****
 1  2  3  4  5  17  18  19  20  21  22  23  24  25 0
 3-21G
 ****
 26  28  29  30  38  39  40  41  42  43  44  45 0
 3-21G
 ****


