%nproc=1
%NoSave
%Mem=1900MB
#P OB98/GEN NMR

erre ene a

0 1
  C     -142.844     206.082     110.073
  O     -144.218     205.725     110.080
  P     -144.734     204.787     108.876
  C     -144.972     205.154     106.299
  O     -144.851     205.734     107.589
  C     -145.910     206.007     105.439
  O     -147.263     205.914     105.927
  C     -145.564     207.489     105.421
  O     -144.520     207.748     104.498
  C     -146.900     208.107     105.026
  O     -147.103     208.028     103.604
  C     -147.899     207.212     105.776
  N     -150.473     210.847     108.177
  C     -150.137     210.730     106.836
  N     -150.591     211.702     106.013
  N     -149.420     209.749     106.352
  C     -149.023     208.859     107.291
  C     -149.278     208.875     108.644
  C     -150.115     209.938     109.160
  O     -150.519     210.034     110.316
  N     -148.687     207.815     109.281
  C     -148.103     207.143     108.307
  N     -148.296     207.720     107.079
  O     -146.249     204.485     109.281
  O     -143.935     203.542     108.654
  H     -148.016     208.300     103.392
  H     -146.324     203.610     109.707
  H     -151.037     211.616     108.490
  H     -147.552     206.222     108.439
  H     -148.824     207.054     105.203
  H     -146.959     209.170     105.293
  H     -151.126     212.500     106.322
  H     -145.280     207.829     106.427
  H     -150.350     211.632     105.031
  H     -145.894     205.595     104.419
  H     -145.390     204.148     106.398
  H     -143.980     205.084     105.843
  P     -143.358     208.754     104.950
  C     -143.285     211.301     105.472
  O     -143.929     210.244     104.783
  O     -142.277     208.621     103.777
  O     -142.758     208.446     106.284
  H     -141.375     208.696     104.152
  H     -143.410     212.216     104.894
  H     -142.220     211.102     105.609
  H     -143.756     211.425     106.449
  H     -142.632     206.702     110.919
  H     -142.619     206.617     109.174
  H     -142.245     205.197     110.120

 3  4  5  6  7  8  9  10  11  12  23  26  30  31 0
 6-311+G(2d,p)
 ****
 33  35  36  37  38 0
 6-311+G(2d,p)
 ****
 1  2  13  14  15  16  17  18  19  20  21  22  24  25 0
 3-21G
 ****
 27  28  29  32  34  39  40  41  42  43  44  45  46  47  48  49 0
 3-21G
 ****


