%nproc=1
%NoSave
%Mem=1900MB
#P OB98/GEN NMR

erre ene a

0 1
  C     -108.182     -35.470     133.964
  O     -108.855     -34.623     133.055
  H     -108.784     -36.372     134.107
  H     -108.073     -34.970     134.930
  H     -107.202     -35.758     133.578
  P     -108.126     -33.286     132.556
  C     -107.712     -34.333     130.234
  O     -108.259     -33.239     130.955
  C     -108.432     -34.514     128.894
  O     -109.853     -34.658     129.145
  C     -108.243     -33.337     127.930
  O     -108.142     -33.836     126.596
  C     -109.527     -32.545     128.088
  O     -109.835     -31.779     126.925
  C     -110.543     -33.647     128.382
  N     -114.450     -30.446     128.213
  C     -113.530     -30.780     127.240
  N     -113.653     -30.158     126.047
  N     -112.567     -31.647     127.418
  C     -112.576     -32.210     128.652
  C     -113.432     -31.965     129.701
  C     -114.479     -30.986     129.495
  O     -115.315     -30.638     130.324
  N     -113.105     -32.722     130.800
  C     -112.054     -33.422     130.415
  N     -111.686     -33.138     129.125
  O     -106.734     -33.096     133.072
  O     -109.093     -32.106     133.035
  H     -110.784     -31.533     126.988
  H     -108.722     -31.640     133.806
  H     -115.163     -29.764     128.025
  H     -111.521     -34.136     131.027
  H     -110.936     -34.109     127.469
  H     -109.434     -31.855     128.936
  H     -114.385     -29.497     125.832
  H     -107.359     -32.746     128.168
  H     -113.010     -30.407     125.306
  H     -108.091     -35.452     128.439
  H     -107.831     -35.238     130.840
  H     -106.643     -34.158     130.067
  P     -106.738     -33.724     125.826
  C     -105.174     -35.694     126.356
  O     -106.202     -35.204     125.507
  O     -105.734     -32.814     126.454
  O     -107.171     -33.187     124.376
  H     -106.471     -32.593     124.039
  H     -104.899     -36.682     126.050
  H     -105.527     -35.719     127.366
  H     -104.321     -35.051     126.292

 6  7  8  9  10  11  12  13  14  15  26  29  33  34 0
 6-311+G(2d,p)
 ****
 36  38  39  40  41 0
 6-311+G(2d,p)
 ****
 1  2  3  4  5  16  17  18  19  20  21  22  23  24  25 0
 3-21G
 ****
 27  28  30  31  32  35  37  42  43  44  45  46  47 0
 3-21G
 ****
 48  49 0
 3-21G
 ****


