%nproc=1
%NoSave
%Mem=1900MB
#P OB98/GEN NMR

erre ene a

0 1
  C      120.281    -188.581     -42.159
  O      118.958    -189.027     -41.967
  H      120.579    -187.992     -41.285
  H      120.352    -187.944     -43.045
  H      120.961    -189.433     -42.257
  P      118.194    -189.757     -43.180
  C      116.744    -187.642     -43.281
  O      117.533    -188.555     -44.033
  C      115.257    -187.769     -43.630
  O      115.009    -187.168     -44.929
  C      114.754    -189.218     -43.682
  O      113.519    -189.318     -42.967
  C      114.526    -189.466     -45.167
  O      113.576    -190.503     -45.402
  C      114.130    -188.061     -45.644
  N      114.246    -187.896     -47.090
  C      113.048    -187.816     -47.811
  O      111.968    -187.924     -47.228
  N      113.102    -187.657     -49.171
  C      114.251    -187.635     -49.772
  N      114.236    -187.485     -51.128
  C      115.541    -187.761     -49.061
  C      115.465    -187.879     -47.730
  O      117.242    -190.830     -42.767
  O      119.367    -190.273     -44.141
  H      113.570    -190.705     -46.366
  H      119.019    -190.989     -44.728
  H      116.473    -187.746     -49.605
  H      116.361    -187.969     -47.123
  H      113.095    -187.829     -45.353
  H      115.474    -189.764     -45.637
  H      115.455    -189.932     -43.260
  H      114.683    -187.172     -42.903
  H      113.331    -187.400     -51.578
  H      117.097    -186.624     -43.483
  H      115.068    -187.459     -51.701
  H      116.879    -187.866     -42.217
  P      113.602    -189.974     -41.501
  C      112.953    -192.275     -42.509
  O      113.853    -191.552     -41.680
  O      112.093    -189.881     -40.974
  O      114.554    -189.278     -40.584
  H      111.995    -189.125     -40.365
  H      113.241    -193.305     -42.535
  H      112.979    -191.873     -43.500
  H      111.961    -192.192     -42.116

 6  7  8  9  10  11  12  13  14  15  16  26  30  31  32  33  35 0
 6-311+G(2d,p)
 ****
 37  38 0
 6-311+G(2d,p)
 ****
 1  2  3  4  5  17  18  19  20  21  22  23  24  25 0
 3-21G
 ****
 27  28  29  34  36  39  40  41  42  43  44  45  46 0
 3-21G
 ****


