%nproc=1
%NoSave
%Mem=1900MB
#P OB98/GEN NMR

erre ene a

0 1
  C      -63.111      45.715     102.985
  O      -62.652      44.424     103.327
  H      -63.600      46.154     103.858
  H      -63.836      45.664     102.168
  H      -62.271      46.354     102.700
  P      -61.996      43.519     102.175
  C      -59.595      44.282     102.778
  O      -60.628      44.280     101.806
  C      -58.302      44.824     102.174
  O      -57.317      45.076     103.198
  C      -57.609      43.883     101.193
  O      -58.258      43.802      99.935
  C      -56.247      44.552     101.104
  O      -56.340      45.724     100.275
  C      -56.005      44.938     102.583
  N      -55.204      43.953     103.307
  C      -53.817      44.149     103.306
  O      -53.322      45.111     102.719
  N      -53.017      43.229     103.940
  C      -53.553      42.194     104.507
  N      -52.712      41.288     105.080
  C      -55.008      41.957     104.547
  C      -55.766      42.861     103.930
  O      -62.876      43.187     101.013
  O      -61.448      42.229     102.946
  H      -55.486      46.189     100.342
  H      -61.041      41.630     102.273
  H      -55.402      41.073     105.027
  H      -56.844      42.747     103.901
  H      -55.512      45.914     102.655
  H      -55.478      43.908     100.671
  H      -57.482      42.888     101.632
  H      -58.535      45.791     101.708
  H      -51.720      41.462     104.996
  H      -59.462      43.257     103.136
  H      -53.018      40.344     105.288
  H      -59.874      44.919     103.623
  P      -58.026      42.479      99.054
  C      -59.957      41.243     100.291
  O      -58.590      41.248      99.917
  O      -56.440      42.286      99.113
  O      -58.548      42.533      97.654
  H      -56.007      42.701      98.341
  H      -60.169      40.360     100.857
  H      -60.567      41.258      99.412
  H      -60.167      42.107     100.886

 6  7  8  9  10  11  12  13  14  15  16  26  30  31  32  33  35 0
 6-311+G(2d,p)
 ****
 37  38 0
 6-311+G(2d,p)
 ****
 1  2  3  4  5  17  18  19  20  21  22  23  24  25 0
 3-21G
 ****
 27  28  29  34  36  39  40  41  42  43  44  45  46 0
 3-21G
 ****


