%nproc=1
%NoSave
%Mem=1900MB
#P OB98/GEN NMR

erre ene a

0 1
  C     -191.841    -310.864     556.569
  O     -192.365    -310.204     557.705
  H     -191.405    -311.828     556.857
  H     -192.653    -311.049     555.858
  H     -191.082    -310.240     556.089
  P     -191.345    -309.943     558.912
  C     -189.416    -311.325     559.957
  O     -190.618    -311.347     559.204
  C     -189.488    -312.336     561.090
  O     -189.771    -313.659     560.569
  C     -188.203    -312.489     561.900
  O     -188.040    -311.437     562.840
  C     -188.459    -313.819     562.586
  O     -189.305    -313.622     563.732
  C     -189.214    -314.616     561.508
  N     -186.943    -319.221     561.589
  C     -187.722    -318.580     562.491
  N     -188.277    -317.355     562.406
  C     -187.983    -316.779     561.232
  C     -187.203    -317.304     560.209
  C     -186.660    -318.583     560.428
  N     -185.855    -319.218     559.501
  N     -187.125    -316.426     559.151
  C     -187.850    -315.387     559.520
  N     -188.377    -315.551     560.777
  O     -192.308    -309.756     560.182
  O     -190.433    -308.775     558.737
  H     -189.489    -314.508     564.102
  H     -191.917    -309.090     560.776
  H     -187.920    -319.134     563.401
  H     -188.015    -314.505     558.918
  H     -190.055    -315.171     561.933
  H     -187.547    -314.309     562.934
  H     -187.332    -312.579     561.241
  H     -190.327    -312.055     561.747
  H     -189.267    -310.325     560.376
  H     -185.666    -320.198     559.619
  H     -185.659    -318.736     558.629
  H     -188.576    -311.563     559.291
  P     -186.545    -311.124     563.348
  C     -184.650    -312.574     564.361
  O     -186.025    -312.493     564.009
  O     -186.785    -310.173     564.610
  O     -185.650    -310.494     562.333
  H     -186.002    -309.610     564.754
  H     -184.447    -313.534     564.787
  H     -184.419    -311.811     565.075
  H     -184.049    -312.438     563.486

 6  7  8  9  10  11  12  13  14  15  25  28  32  33  34  35 0
 6-311+G(2d,p)
 ****
 36  39  40 0
 6-311+G(2d,p)
 ****
 1  2  3  4  5  16  17  18  19  20  21  22  23  24 0
 3-21G
 ****
 26  27  29  30  31  37  38  41  42  43  44  45  46  47  48 0
 3-21G
 ****


