%nproc=1
%NoSave
%Mem=1900MB
#P OB98/GEN NMR

erre ene a

0 1
  C       -3.646    -600.058     392.129
  O       -4.667    -599.305     391.508
  H       -2.682    -599.728     391.739
  H       -3.773    -601.122     391.900
  H       -3.664    -599.906     393.210
  P       -6.181    -599.613     391.955
  C       -6.872    -599.099     389.495
  O       -7.094    -598.840     390.877
  C       -7.718    -598.156     388.635
  O       -9.110    -598.557     388.721
  C       -7.626    -596.691     389.062
  O       -7.518    -595.863     387.902
  C       -8.938    -596.432     389.786
  O       -9.317    -595.055     389.744
  C       -9.892    -597.399     389.075
  N      -11.026    -597.764     389.920
  C      -12.097    -596.864     389.961
  O      -12.053    -595.819     389.307
  N      -13.172    -597.144     390.770
  C      -13.146    -598.198     391.528
  N      -14.229    -598.409     392.326
  C      -12.017    -599.147     391.556
  C      -11.005    -598.872     390.734
  O       -6.345    -598.742     393.281
  O       -6.510    -601.057     392.130
  H      -10.080    -594.935     390.346
  H       -7.158    -598.996     393.785
  H      -12.035    -600.004     392.218
  H      -10.131    -599.518     390.693
  H      -10.276    -596.954     388.147
  H       -8.833    -596.718     390.840
  H       -6.777    -596.492     389.716
  H       -7.425    -598.286     387.583
  H      -14.982    -597.728     392.286
  H       -7.141    -600.138     389.281
  H      -14.305    -599.178     392.975
  H       -5.811    -598.945     389.269
  P       -6.185    -594.966     387.801
  C       -7.406    -592.703     388.117
  O       -6.617    -593.517     387.265
  O       -5.389    -595.614     386.573
  O       -5.381    -594.955     389.062
  H       -4.687    -596.208     386.899
  H       -7.615    -591.774     387.629
  H       -6.873    -592.517     389.026
  H       -8.325    -593.204     388.338

 6  7  8  9  10  11  12  13  14  15  16  26  30  31  32  33  35 0
 6-311+G(2d,p)
 ****
 37  38 0
 6-311+G(2d,p)
 ****
 1  2  3  4  5  17  18  19  20  21  22  23  24  25 0
 3-21G
 ****
 27  28  29  34  36  39  40  41  42  43  44  45  46 0
 3-21G
 ****


