%nproc=1
%NoSave
%Mem=1900MB
#P OB98/GEN NMR

erre ene a

0 1
  C      -73.307    -386.893     343.150
  O      -73.886    -388.024     342.536
  P      -73.951    -388.081     340.935
  C      -74.151    -390.674     340.760
  O      -74.756    -389.408     340.525
  C      -74.183    -391.526     339.483
  O      -75.579    -391.809     339.139
  C      -73.539    -390.861     338.261
  O      -72.946    -391.901     337.473
  C      -74.732    -390.286     337.524
  O      -74.473    -390.005     336.167
  C      -75.761    -391.404     337.767
  N      -77.135    -390.981     337.503
  C      -77.927    -391.823     336.730
  O      -77.547    -392.896     336.268
  N      -79.190    -391.367     336.456
  C      -79.687    -390.137     336.779
  O      -80.784    -389.740     336.394
  C      -78.803    -389.281     337.589
  C      -77.587    -389.729     337.908
  O      -72.443    -388.414     340.514
  O      -74.446    -386.835     340.288
  H      -73.632    -389.510     336.119
  H      -71.981    -387.602     340.229
  H      -79.785    -391.968     335.908
  H      -79.178    -388.314     337.885
  H      -76.904    -389.116     338.485
  H      -75.521    -392.269     337.135
  H      -75.037    -389.351     338.010
  H      -72.789    -390.100     338.523
  H      -73.709    -392.489     339.696
  H      -74.688    -391.188     341.556
  H      -73.118    -390.530     341.102
  P      -71.476    -391.626     336.865
  C      -71.231    -394.194     336.393
  O      -71.149    -392.871     335.904
  O      -70.566    -391.890     338.157
  O      -71.311    -390.271     336.270
  H      -70.845    -392.674     338.660
  H      -72.035    -394.301     337.124
  H      -70.281    -394.474     336.859
  H      -71.429    -394.871     335.553
  H      -73.340    -387.008     344.213
  H      -73.852    -386.016     342.869
  H      -72.289    -386.797     342.833

 3  4  5  6  7  8  9  10  11  12  13  23  28  29  30  31  32 0
 6-311+G(2d,p)
 ****
 33  34 0
 6-311+G(2d,p)
 ****
 1  2  14  15  16  17  18  19  20  21  22  24  25  26 0
 3-21G
 ****
 27  35  36  37  38  39  40  41  42  43  44  45 0
 3-21G
 ****


