%nproc=1
%NoSave
%Mem=1900MB
#P OB98/GEN NMR

erre ene a

0 1
  C     -892.428     306.908    -893.725
  O     -892.978     305.608    -893.735
  H     -891.598     306.948    -894.445
  H     -892.028     307.145    -892.745
  H     -893.168     307.657    -894.005
  P     -894.298     305.372    -892.865
  C     -895.918     304.478    -894.695
  O     -895.548     305.569    -893.855
  C     -895.848     304.912    -896.175
  O     -894.468     305.234    -896.525
  C     -896.338     303.817    -897.145
  O     -897.058     304.442    -898.215
  C     -895.038     303.234    -897.695
  O     -895.198     302.633    -898.975
  C     -894.108     304.463    -897.665
  N     -892.698     304.066    -897.615
  C     -892.098     303.765    -898.845
  O     -892.738     303.846    -899.895
  N     -890.788     303.348    -898.855
  C     -890.188     303.134    -897.725
  N     -888.898     302.679    -897.805
  C     -890.798     303.364    -896.405
  C     -892.038     303.821    -896.425
  O     -894.368     306.665    -891.925
  O     -894.338     304.100    -892.065
  H     -895.488     303.344    -899.595
  H     -894.788     306.466    -891.075
  H     -890.248     303.152    -895.485
  H     -892.588     304.016    -895.505
  H     -894.278     305.090    -898.545
  H     -894.668     302.468    -897.015
  H     -896.958     303.066    -896.665
  H     -896.438     305.826    -896.295
  H     -888.508     302.529    -898.725
  H     -896.918     304.181    -894.465
  H     -888.338     302.448    -896.975
  H     -895.228     303.638    -894.515
  P     -898.618     304.073    -898.335
  C     -899.388     306.474    -899.055
  O     -899.468     305.421    -898.075
  O     -898.898     303.200    -897.015
  O     -898.958     303.318    -899.585
  H     -899.018     302.258    -897.275
  H     -900.000     307.296    -898.746
  H     -899.731     306.108    -900.000
  H     -898.373     306.800    -899.146

 6  7  8  9  10  11  12  13  14  15  16  26  30  31  32  33  35 0
 6-311+G(2d,p)
 ****
 37  38 0
 6-311+G(2d,p)
 ****
 1  2  3  4  5  17  18  19  20  21  22  23  24  25 0
 3-21G
 ****
 27  28  29  34  36  39  40  41  42  43  44  45  46 0
 3-21G
 ****


