%nproc=1
%NoSave
%Mem=1900MB
#P OB98/GEN NMR

erre ene a

0 1
  C     -121.121     227.671     239.606
  O     -120.626     228.957     239.915
  H     -120.292     227.055     239.248
  H     -121.876     227.731     238.818
  H     -121.547     227.198     240.496
  P     -121.653     230.061     240.463
  C     -122.505     231.802     238.742
  O     -122.537     230.449     239.175
  C     -121.235     232.068     237.939
  O     -120.956     230.986     237.021
  C     -121.284     233.311     237.054
  O     -121.188     234.528     237.774
  C     -120.068     233.059     236.181
  O     -118.870     233.341     236.928
  C     -120.214     231.546     235.902
  N     -120.901     231.268     234.639
  C     -120.095     231.139     233.501
  O     -118.876     231.265     233.580
  N     -120.697     230.901     232.288
  C     -121.991     230.827     232.214
  N     -122.534     230.596     230.982
  C     -122.877     230.978     233.382
  C     -122.275     231.191     234.550
  O     -121.045     231.214     241.197
  O     -122.706     229.232     241.338
  H     -118.908     232.796     237.736
  H     -123.360     229.872     241.709
  H     -123.951     230.936     233.262
  H     -122.860     231.319     235.455
  H     -119.232     231.056     235.886
  H     -120.044     233.682     235.286
  H     -122.177     233.303     236.418
  H     -120.399     232.112     238.648
  H     -121.900     230.498     230.201
  H     -122.553     232.446     239.624
  H     -123.532     230.599     230.819
  H     -123.366     232.009     238.102
  P     -122.115     235.745     237.274
  C     -120.836     237.763     236.213
  O     -121.325     236.439     236.063
  O     -122.004     236.799     238.469
  O     -123.532     235.380     236.956
  H     -122.781     236.736     239.058
  H     -120.339     238.064     235.314
  H     -120.147     237.798     237.031
  H     -121.654     238.425     236.407

 6  7  8  9  10  11  12  13  14  15  16  26  30  31  32  33  35 0
 6-311+G(2d,p)
 ****
 37  38 0
 6-311+G(2d,p)
 ****
 1  2  3  4  5  17  18  19  20  21  22  23  24  25 0
 3-21G
 ****
 27  28  29  34  36  39  40  41  42  43  44  45  46 0
 3-21G
 ****


