%nproc=1
%NoSave
%Mem=1900MB
#P OB98/GEN NMR

erre ene a

0 1
  C      378.304     151.918      73.269
  O      378.111     152.150      71.889
  H      379.102     151.181      73.388
  H      377.391     151.518      73.718
  H      378.599     152.839      73.778
  P      376.984     153.200      71.439
  C      378.878     154.552      70.300
  O      377.614     153.926      70.149
  C      379.432     154.958      68.939
  O      378.426     155.615      68.137
  C      380.588     155.951      68.986
  O      381.814     155.383      69.415
  C      380.628     156.378      67.530
  O      381.234     155.341      66.740
  C      379.119     156.511      67.223
  N      378.630     157.882      67.383
  C      378.464     158.627      66.211
  O      378.727     158.140      65.112
  N      378.026     159.927      66.308
  C      377.802     160.446      67.479
  N      377.380     161.741      67.519
  C      377.986     159.702      68.740
  C      378.394     158.441      68.619
  O      376.475     154.114      72.508
  O      375.842     152.299      70.774
  H      381.207     155.643      65.812
  H      375.111     152.900      70.487
  H      377.814     160.186      69.689
  H      378.558     157.832      69.502
  H      378.896     156.173      66.203
  H      381.204     157.293      67.365
  H      380.329     156.825      69.599
  H      379.715     154.036      68.413
  H      377.265     162.221      66.637
  H      379.549     153.853      70.806
  H      377.253     162.244      68.384
  H      378.779     155.456      70.916
  P      382.630     156.181      70.551
  C      383.250     153.853      71.560
  O      383.689     155.142      71.155
  O      381.547     156.360      71.715
  O      383.223     157.480      70.110
  H      381.150     157.252      71.680
  H      384.082     153.295      71.936
  H      382.827     153.341      70.721
  H      382.511     153.953      72.327

 6  7  8  9  10  11  12  13  14  15  16  26  30  31  32  33  35 0
 6-311+G(2d,p)
 ****
 37  38 0
 6-311+G(2d,p)
 ****
 1  2  3  4  5  17  18  19  20  21  22  23  24  25 0
 3-21G
 ****
 27  28  29  34  36  39  40  41  42  43  44  45  46 0
 3-21G
 ****


