%nproc=1
%NoSave
%Mem=1900MB
#P OB98/GEN NMR

erre ene a

0 1
  C      711.421    -798.316    -542.600
  O      711.973    -799.096    -543.660
  P      712.542    -800.565    -543.309
  C      711.551    -802.942    -543.227
  O      711.466    -801.644    -543.811
  C      710.508    -803.891    -543.837
  O      709.170    -803.402    -543.500
  C      710.544    -803.976    -545.375
  O      711.369    -804.970    -545.965
  C      709.091    -804.410    -545.686
  O      708.962    -805.826    -545.525
  C      708.277    -803.704    -544.599
  N      704.263    -801.724    -547.110
  C      704.596    -802.983    -546.799
  N      705.682    -803.431    -546.128
  C      706.473    -802.404    -545.762
  C      706.252    -801.059    -545.998
  C      705.102    -800.719    -546.719
  N      704.746    -799.423    -547.031
  N      707.277    -800.303    -545.469
  C      708.104    -801.186    -544.934
  N      707.649    -802.469    -545.065
  O      713.045    -800.757    -541.927
  O      713.708    -800.732    -544.385
  H      709.138    -806.010    -544.582
  H      714.454    -801.211    -543.973
  H      703.897    -803.758    -547.134
  H      709.035    -800.933    -544.439
  H      707.480    -804.331    -544.205
  H      708.796    -804.166    -546.707
  H      710.727    -803.000    -545.818
  H      710.621    -804.894    -543.399
  H      711.383    -802.869    -542.152
  H      703.926    -799.279    -547.597
  H      705.401    -798.676    -546.811
  H      712.566    -803.301    -543.367
  P      712.962    -804.716    -546.125
  C      714.891    -804.430    -544.375
  O      713.554    -804.801    -544.640
  O      713.347    -803.482    -546.888
  O      713.465    -806.077    -546.792
  H      713.405    -806.855    -546.203
  H      715.031    -804.342    -543.294
  H      715.122    -803.453    -544.837
  H      715.583    -805.186    -544.774
  H      711.089    -797.375    -542.985
  H      712.168    -798.151    -541.852
  H      710.592    -798.837    -542.168

 3  4  5  6  7  8  9  10  11  12  22  25  29  30  31  32 0
 6-311+G(2d,p)
 ****
 33  36  37 0
 6-311+G(2d,p)
 ****
 1  2  13  14  15  16  17  18  19  20  21  23  24  26 0
 3-21G
 ****
 27  28  34  35  38  39  40  41  42  43  44  45  46  47  48 0
 3-21G
 ****


