%nproc=1
%NoSave
%Mem=1900MB
#P OB98/GEN NMR

erre ene a

0 1
  C       77.352     -25.614     893.617
  O       77.395     -26.204     892.301
  P       77.731     -27.754     892.059
  C       76.522     -29.604     890.709
  O       77.009     -28.248     890.705
  C       75.774     -29.934     889.417
  O       74.504     -29.232     889.339
  C       76.514     -29.528     888.134
  O       77.566     -30.455     887.850
  C       75.367     -29.536     887.121
  O       75.107     -30.876     886.647
  C       74.198     -29.011     887.972
  N       73.901     -27.603     887.694
  C       73.145     -27.323     886.562
  O       72.811     -28.255     885.796
  N       72.829     -26.009     886.276
  C       73.284     -25.055     887.047
  N       72.920     -23.773     886.735
  C       74.170     -25.300     888.215
  C       74.421     -26.570     888.467
  O       77.475     -28.625     893.249
  O       79.291     -27.773     891.660
  H       75.031     -31.453     887.437
  H       79.673     -28.616     891.945
  H       74.548     -24.474     888.807
  H       75.060     -26.842     889.311
  H       73.284     -29.598     887.769
  H       75.595     -28.928     886.240
  H       76.912     -28.501     888.239
  H       75.550     -31.009     889.404
  H       72.309     -23.655     885.939
  H       75.830     -29.725     891.568
  H       73.219     -22.959     887.260
  H       77.369     -30.274     890.845
  P       79.068     -30.083     888.281
  C       81.171     -31.529     887.844
  O       80.059     -30.850     887.281
  O       79.393     -30.262     889.730
  O       79.250     -28.555     887.825
  H       79.869     -28.104     888.436
  H       81.506     -32.304     887.171
  H       80.899     -31.978     888.824
  H       81.987     -30.811     888.027
  H       77.110     -24.575     893.534
  H       78.307     -25.721     894.087
  H       76.607     -26.108     894.205

 3  4  5  6  7  8  9  10  11  12  13  23  27  28  29  30  32 0
 6-311+G(2d,p)
 ****
 34  35 0
 6-311+G(2d,p)
 ****
 1  2  14  15  16  17  18  19  20  21  22  24  25  26 0
 3-21G
 ****
 31  33  36  37  38  39  40  41  42  43  44  45  46 0
 3-21G
 ****


