%nproc=1
%NoSave
%Mem=1900MB
#P OB98/GEN NMR

erre ene a

0 1
  C     1106.200     682.696    1430.379
  O     1105.238     683.743    1430.571
  P     1103.802     683.810    1429.878
  C     1102.460     684.516    1432.038
  O     1102.689     683.565    1431.000
  C     1101.050     684.385    1432.616
  O     1100.120     684.167    1431.489
  C     1100.890     683.176    1433.547
  O     1100.115     683.460    1434.710
  C     1100.385     682.084    1432.625
  O     1099.743     681.012    1433.303
  C     1099.509     682.875    1431.652
  N     1097.950     678.704    1429.119
  C     1098.082     678.926    1430.487
  N     1097.783     677.872    1431.290
  N     1098.487     680.035    1431.006
  C     1098.850     680.963    1430.114
  C     1098.777     680.892    1428.725
  C     1098.277     679.664    1428.155
  O     1098.119     679.434    1426.953
  N     1099.213     682.054    1428.128
  C     1099.554     682.816    1429.147
  N     1099.356     682.217    1430.364
  O     1103.652     683.040    1428.595
  O     1103.625     685.372    1429.539
  H     1099.525     680.328    1432.621
  H     1103.087     685.428    1428.726
  H     1097.595     677.833    1428.774
  H     1099.963     683.843    1429.060
  H     1098.506     683.022    1432.036
  H     1101.239     681.654    1432.104
  H     1097.554     676.944    1430.935
  H     1101.859     682.870    1433.970
  H     1098.090     677.950    1432.261
  H     1100.772     685.332    1433.098
  H     1102.611     685.486    1431.597
  H     1103.220     684.397    1432.831
  P     1100.599     683.580    1436.241
  C     1100.444     686.157    1436.069
  O     1101.270     685.018    1436.435
  O     1101.877     682.594    1436.338
  O     1099.571     683.218    1437.270
  H     1101.691     681.911    1436.996
  H     1101.102     687.036    1435.992
  H     1099.704     686.304    1436.837
  H     1099.992     685.959    1435.094
  H     1107.073     682.902    1430.962
  H     1106.467     682.642    1429.344
  H     1105.778     681.763    1430.687

 3  4  5  6  7  8  9  10  11  12  23  26  30  31 0
 6-311+G(2d,p)
 ****
 33  35  36  37  38 0
 6-311+G(2d,p)
 ****
 1  2  13  14  15  16  17  18  19  20  21  22  24  25 0
 3-21G
 ****
 27  28  29  32  34  39  40  41  42  43  44  45  46  47  48  49 0
 3-21G
 ****


