%nproc=1
%NoSave
%Mem=1900MB
#P OB98/GEN NMR

erre ene a

0 1
  C     -545.602     225.964     327.311
  O     -544.818     225.030     326.594
  H     -544.949     226.767     327.668
  H     -546.079     225.493     328.173
  H     -546.364     226.397     326.657
  P     -545.493     223.632     326.188
  C     -543.559     223.356     324.499
  O     -544.309     222.754     325.552
  C     -542.518     222.385     323.940
  O     -543.153     221.153     323.534
  C     -541.813     222.894     322.690
  O     -540.936     223.983     322.930
  C     -541.269     221.615     322.075
  O     -540.002     221.224     322.602
  C     -542.343     220.579     322.485
  N     -543.154     220.148     321.351
  C     -542.624     219.111     320.592
  O     -541.537     218.582     320.822
  N     -543.374     218.718     319.512
  C     -544.546     219.289     319.106
  O     -545.154     218.918     318.105
  C     -545.041     220.401     319.931
  C     -544.334     220.777     321.000
  O     -546.713     223.726     325.324
  O     -545.758     222.920     327.594
  H     -539.778     220.362     322.199
  H     -546.403     222.174     327.502
  H     -543.016     217.960     318.958
  H     -545.964     220.877     319.633
  H     -544.676     221.599     321.626
  H     -541.867     219.690     322.915
  H     -541.146     221.710     320.993
  H     -542.576     223.269     321.997
  H     -541.801     222.149     324.733
  H     -543.047     224.230     324.915
  H     -544.241     223.687     323.708
  P     -541.128     225.419     322.253
  C     -539.346     226.505     323.815
  O     -539.770     226.259     322.477
  O     -542.438     226.097     322.473
  O     -541.041     225.038     320.684
  H     -541.635     225.644     320.205
  H     -538.437     227.069     323.803
  H     -539.181     225.573     324.314
  H     -540.102     227.057     324.333

 6  7  8  9  10  11  12  13  14  15  16  26  31  32  33  34  35 0
 6-311+G(2d,p)
 ****
 36  37 0
 6-311+G(2d,p)
 ****
 1  2  3  4  5  17  18  19  20  21  22  23  24  25 0
 3-21G
 ****
 27  28  29  30  38  39  40  41  42  43  44  45 0
 3-21G
 ****


