%nproc=1
%NoSave
%Mem=1900MB
#P OB98/GEN NMR

erre ene a

0 1
  C      -48.301     108.475      26.416
  O      -47.410     109.459      26.923
  P      -45.836     109.148      26.847
  C      -45.825     108.992      29.439
  O      -45.483     108.371      28.206
  C      -46.452     107.981      30.393
  O      -47.413     107.166      29.693
  C      -45.466     107.006      31.020
  O      -44.795     107.564      32.136
  C      -46.402     105.895      31.465
  O      -47.054     106.268      32.692
  C      -47.419     105.855      30.318
  N      -46.855     100.839      29.505
  C      -47.086     101.548      30.631
  N      -47.212     102.883      30.767
  C      -47.036     103.501      29.587
  C      -46.756     102.912      28.365
  C      -46.676     101.512      28.342
  N      -46.467     100.788      27.189
  N      -46.639     103.870      27.381
  C      -46.856     105.015      27.993
  N      -47.110     104.843      29.326
  O      -45.173     110.589      27.063
  O      -45.381     108.503      25.583
  H      -47.706     105.569      32.891
  H      -44.273     110.602      26.685
  H      -47.193     100.963      31.540
  H      -46.848     105.984      27.514
  H      -48.439     105.669      30.671
  H      -45.884     104.951      31.652
  H      -44.763     106.616      30.273
  H      -46.988     108.539      31.173
  H      -46.542     109.795      29.248
  H      -46.606      99.792      27.226
  H      -46.536     101.278      26.304
  H      -44.923     109.426      29.882
  P      -43.326     108.160      31.876
  C      -42.524     106.176      33.348
  O      -42.320     106.952      32.184
  O      -43.118     109.162      33.104
  O      -43.168     108.835      30.556
  H      -42.480     109.862      32.870
  H      -41.969     105.239      33.247
  H      -43.583     105.940      33.487
  H      -42.148     106.713      34.223
  H      -49.309     108.814      26.531
  H      -48.168     107.561      26.956
  H      -48.096     108.309      25.379

 3  4  5  6  7  8  9  10  11  12  22  25  29  30  31  32 0
 6-311+G(2d,p)
 ****
 33  36  37 0
 6-311+G(2d,p)
 ****
 1  2  13  14  15  16  17  18  19  20  21  23  24  26 0
 3-21G
 ****
 27  28  34  35  38  39  40  41  42  43  44  45  46  47  48 0
 3-21G
 ****


