%nproc=1
%NoSave
%Mem=1900MB
#P OB98/GEN NMR

erre ene a

0 1
  C     -283.909    -520.488     125.492
  O     -283.033    -519.713     126.320
  P     -283.220    -518.140     126.572
  C     -281.815    -518.030     128.732
  O     -281.960    -517.577     127.393
  C     -281.281    -519.465     128.793
  O     -280.240    -519.658     127.786
  C     -280.677    -519.857     130.154
  O     -281.053    -521.221     130.391
  C     -279.185    -519.732     129.887
  O     -278.375    -520.422     130.820
  C     -279.126    -520.284     128.460
  N     -277.885    -520.036     127.740
  C     -276.994    -521.111     127.592
  O     -277.221    -522.207     128.096
  N     -275.837    -520.904     126.878
  C     -275.580    -519.742     126.366
  N     -274.422    -519.614     125.664
  C     -276.476    -518.583     126.517
  C     -277.597    -518.803     127.203
  O     -284.535    -517.787     127.193
  O     -283.079    -517.453     125.132
  H     -283.687    -516.692     125.079
  H     -277.445    -520.298     130.560
  H     -276.231    -517.635     126.068
  H     -278.325    -518.003     127.334
  H     -279.332    -521.361     128.479
  H     -278.910    -518.674     129.928
  H     -281.034    -519.245     130.989
  H     -282.099    -520.144     128.530
  H     -273.837    -520.436     125.576
  H     -282.794    -518.000     129.216
  H     -274.129    -518.758     125.217
  H     -281.144    -517.349     129.268
  P     -281.949    -521.586     131.670
  C     -283.603    -523.298     130.619
  O     -282.497    -523.078     131.468
  O     -283.270    -520.711     131.408
  O     -281.365    -521.250     133.003
  H     -283.703    -520.527     132.262
  H     -283.397    -524.168     129.989
  H     -283.809    -522.444     129.970
  H     -284.487    -523.506     131.227
  H     -283.580    -521.506     125.480
  H     -283.897    -520.097     124.496
  H     -284.904    -520.439     125.882

 3  4  5  6  7  8  9  10  11  12  13  24  27  28  29  30  32 0
 6-311+G(2d,p)
 ****
 34  35 0
 6-311+G(2d,p)
 ****
 1  2  14  15  16  17  18  19  20  21  22  23  25  26 0
 3-21G
 ****
 31  33  36  37  38  39  40  41  42  43  44  45  46 0
 3-21G
 ****


