%nproc=1
%NoSave
%Mem=1900MB
#P OB98/GEN NMR

erre ene a

0 1
  C      221.301    -167.425     125.869
  O      220.172    -168.236     125.632
  H      221.961    -167.943     126.571
  H      220.985    -166.480     126.318
  H      221.854    -167.228     124.948
  P      219.283    -167.956     124.334
  C      221.175    -168.850     122.823
  O      220.271    -167.783     123.078
  C      221.258    -169.179     121.331
  O      219.977    -169.656     120.866
  C      221.607    -167.953     120.482
  O      222.996    -167.711     120.341
  C      220.975    -168.312     119.139
  O      221.884    -169.064     118.317
  C      219.771    -169.173     119.533
  N      216.627    -166.313     116.689
  C      217.936    -166.680     116.433
  N      218.473    -166.193     115.294
  N      218.638    -167.441     117.231
  C      217.997    -167.768     118.375
  C      216.713    -167.443     118.750
  C      215.915    -166.664     117.828
  O      214.749    -166.326     118.000
  N      216.419    -167.918     120.005
  C      217.553    -168.449     120.420
  N      218.513    -168.452     119.437
  O      218.752    -166.460     124.561
  O      218.135    -168.896     124.122
  H      221.376    -169.448     117.578
  H      217.873    -166.357     124.150
  H      216.125    -165.751     116.026
  H      217.716    -168.884     121.400
  H      219.680    -170.055     118.886
  H      220.715    -167.411     118.577
  H      218.006    -165.537     114.689
  H      221.105    -167.061     120.866
  H      219.482    -166.281     115.162
  H      221.978    -169.990     121.178
  H      220.800    -169.714     123.373
  H      222.166    -168.611     123.218
  P      223.536    -166.286     119.855
  C      223.217    -165.270     122.256
  O      223.003    -165.174     120.863
  O      222.693    -166.017     118.522
  O      225.008    -166.208     119.612
  H      223.215    -166.243     117.732
  H      222.780    -164.424     122.743
  H      224.268    -165.292     122.455
  H      222.765    -166.167     122.625

 6  7  8  9  10  11  12  13  14  15  26  29  33  34 0
 6-311+G(2d,p)
 ****
 36  38  39  40  41 0
 6-311+G(2d,p)
 ****
 1  2  3  4  5  16  17  18  19  20  21  22  23  24  25 0
 3-21G
 ****
 27  28  30  31  32  35  37  42  43  44  45  46  47 0
 3-21G
 ****
 48  49 0
 3-21G
 ****


