%nproc=1
%NoSave
%Mem=1900MB
#P OB98/GEN NMR

erre ene a

0 1
  C     -230.274     226.228     -93.440
  O     -230.372     224.978     -94.103
  P     -229.011     224.193     -94.425
  C     -228.610     225.112     -96.857
  O     -228.226     225.098     -95.491
  C     -227.369     225.053     -97.753
  O     -226.421     226.067     -97.343
  C     -226.603     223.741     -97.696
  O     -227.246     222.722     -98.448
  C     -225.244     224.165     -98.233
  O     -225.272     224.231     -99.668
  C     -225.097     225.581     -97.638
  N     -224.242     225.625     -96.454
  C     -222.873     225.727     -96.686
  O     -222.383     225.782     -97.813
  N     -222.080     225.744     -95.569
  C     -222.501     225.607     -94.279
  O     -221.742     225.585     -93.320
  C     -223.954     225.470     -94.098
  C     -224.745     225.484     -95.174
  O     -229.576     222.959     -95.274
  O     -228.243     223.823     -93.202
  H     -230.407     223.182     -95.726
  H     -224.517     224.793     -99.933
  H     -221.082     225.840     -95.711
  H     -224.329     225.350     -93.090
  H     -225.817     225.376     -95.062
  H     -224.679     226.265     -98.389
  H     -224.440     223.473     -97.951
  H     -226.500     223.416     -96.652
  H     -227.677     225.276     -98.784
  H     -229.167     226.027     -97.063
  H     -229.261     224.255     -97.055
  P     -226.570     221.262     -98.403
  C     -226.182     221.064    -100.979
  O     -225.621     221.165     -99.690
  O     -227.823     220.331     -98.762
  O     -225.918     220.943     -97.096
  H     -228.370     220.694     -99.477
  H     -225.430     221.366    -101.711
  H     -227.057     221.707    -101.087
  H     -226.465     220.025    -101.172
  H     -231.254     226.632     -93.293
  H     -229.696     226.903     -94.036
  H     -229.798     226.092     -92.491

 3  4  5  6  7  8  9  10  11  12  13  24  28  29  30  31  32 0
 6-311+G(2d,p)
 ****
 33  34 0
 6-311+G(2d,p)
 ****
 1  2  14  15  16  17  18  19  20  21  22  23  25  26  27 0
 3-21G
 ****
 35  36  37  38  39  40  41  42  43  44  45 0
 3-21G
 ****


