%nproc=1
%NoSave
%Mem=1900MB
#P OB98/GEN NMR

erre ene a

0 1
  C     -236.471    -270.023     381.633
  O     -235.835    -271.285     381.474
  P     -234.471    -271.621     382.252
  C     -235.879    -273.026     383.889
  O     -234.883    -272.018     383.759
  C     -235.224    -274.403     384.017
  O     -234.414    -274.419     385.219
  C     -236.247    -275.541     384.139
  O     -235.726    -276.690     383.468
  C     -236.297    -275.853     385.636
  O     -236.697    -277.210     385.872
  C     -234.861    -275.512     386.058
  N     -235.394    -276.969     390.954
  C     -235.552    -277.650     389.797
  N     -235.408    -277.193     388.535
  C     -235.038    -275.899     388.525
  C     -234.842    -275.080     389.631
  C     -235.046    -275.667     390.899
  N     -234.883    -274.977     392.084
  N     -234.496    -273.802     389.241
  C     -234.452    -273.850     387.927
  N     -234.766    -275.104     387.448
  O     -233.414    -270.573     382.151
  O     -233.987    -273.011     381.632
  H     -237.374    -277.425     385.198
  H     -233.016    -273.015     381.541
  H     -235.812    -278.699     389.888
  H     -234.213    -273.025     387.274
  H     -234.185    -276.360     385.896
  H     -237.021    -275.187     386.118
  H     -237.233    -275.280     383.746
  H     -234.571    -274.570     383.166
  H     -236.511    -273.010     382.990
  H     -234.926    -275.505     392.947
  H     -234.455    -274.056     392.045
  H     -236.509    -272.807     384.763
  P     -236.831    -277.750     382.932
  C     -236.894    -276.732     380.526
  O     -237.583    -276.978     381.735
  O     -237.687    -278.281     384.044
  O     -235.903    -278.837     382.209
  H     -235.045    -278.439     381.930
  H     -237.565    -276.162     379.852
  H     -236.637    -277.667     380.041
  H     -236.000    -276.137     380.709
  H     -237.359    -269.994     381.037
  H     -235.805    -269.246     381.320
  H     -236.727    -269.880     382.662

 3  4  5  6  7  8  9  10  11  12  22  25  29  30  31  32 0
 6-311+G(2d,p)
 ****
 33  36  37 0
 6-311+G(2d,p)
 ****
 1  2  13  14  15  16  17  18  19  20  21  23  24  26 0
 3-21G
 ****
 27  28  34  35  38  39  40  41  42  43  44  45  46  47  48 0
 3-21G
 ****


