%nproc=1
%NoSave
%Mem=1900MB
#P OB98/GEN NMR

erre ene a

0 1
  C     -279.609     151.504     -43.943
  O     -279.318     150.245     -43.312
  P     -280.420     149.358     -42.555
  C     -280.601     146.833     -42.006
  O     -279.741     147.964     -42.140
  C     -279.777     145.547     -41.798
  O     -279.080     145.207     -43.027
  C     -278.674     145.638     -40.750
  O     -279.189     145.638     -39.429
  C     -277.839     144.414     -41.108
  O     -278.364     143.220     -40.501
  C     -277.985     144.330     -42.639
  N     -276.763     144.678     -43.347
  C     -276.193     143.671     -44.132
  O     -276.671     142.538     -44.136
  N     -275.079     143.982     -44.889
  C     -274.524     145.153     -44.775
  N     -273.443     145.404     -45.557
  C     -275.024     146.199     -43.855
  C     -276.140     145.897     -43.186
  O     -281.702     149.197     -43.316
  O     -280.672     150.094     -41.152
  H     -281.570     149.891     -40.835
  H     -279.243     143.057     -40.903
  H     -274.516     147.143     -43.769
  H     -276.579     146.612     -42.504
  H     -278.306     143.324     -42.932
  H     -276.799     144.517     -40.764
  H     -278.086     146.548     -40.924
  H     -280.474     144.734     -41.556
  H     -273.136     144.669     -46.187
  H     -281.190     146.736     -42.923
  H     -272.955     146.289     -45.565
  H     -281.285     146.997     -41.161
  P     -278.427     146.548     -38.355
  C     -279.114     148.183     -36.456
  O     -279.532     147.233     -37.418
  O     -277.852     147.765     -39.225
  O     -277.328     145.851     -37.612
  H     -276.959     148.011     -38.912
  H     -279.940     148.875     -36.265
  H     -278.239     148.749     -36.788
  H     -278.873     147.660     -35.521
  H     -278.715     151.900     -44.377
  H     -279.986     152.190     -43.213
  H     -280.343     151.358     -44.708

 3  4  5  6  7  8  9  10  11  12  13  24  27  28  29  30  32 0
 6-311+G(2d,p)
 ****
 34  35 0
 6-311+G(2d,p)
 ****
 1  2  14  15  16  17  18  19  20  21  22  23  25  26 0
 3-21G
 ****
 31  33  36  37  38  39  40  41  42  43  44  45  46 0
 3-21G
 ****


