%nproc=1
%NoSave
%Mem=1900MB
#P OB98/GEN NMR

erre ene a

0 1
  C       69.756     124.232     926.422
  O       69.101     123.203     927.140
  H       70.775     124.333     926.808
  H       69.232     125.185     926.553
  H       69.802     123.981     925.359
  P       67.545     122.938     926.850
  C       65.994     120.861     926.798
  O       67.324     121.344     926.975
  C       65.984     119.329     926.692
  O       66.292     118.959     925.302
  C       67.023     118.632     927.585
  O       66.493     117.339     927.940
  C       68.205     118.492     926.630
  O       69.158     117.592     927.135
  C       67.455     118.103     925.347
  N       68.302     118.280     924.156
  C       67.749     119.038     923.116
  O       66.598     119.483     923.224
  N       68.481     119.226     921.973
  C       69.648     118.671     921.863
  N       70.324     118.894     920.700
  C       70.243     117.802     922.920
  C       69.535     117.665     924.031
  O       66.999     123.554     925.604
  O       66.805     123.506     928.149
  H       69.902     117.456     926.501
  H       66.385     124.361     927.948
  H       71.213     117.357     922.753
  H       69.885     117.061     924.850
  H       67.115     117.067     925.386
  H       68.719     119.463     926.502
  H       67.262     119.211     928.494
  H       64.972     118.960     926.889
  H       69.874     119.480     920.008
  H       65.606     121.311     925.882
  H       71.238     118.490     920.481
  H       65.365     121.172     927.634
  P       65.729     117.068     929.324
  C       64.404     115.078     930.320
  O       65.528     115.479     929.515
  O       64.481     117.874     929.497
  O       66.810     117.428     930.462
  H       66.338     117.738     931.249
  H       64.369     114.010     930.378
  H       63.500     115.441     929.877
  H       64.507     115.485     931.304

 6  7  8  9  10  11  12  13  14  15  16  26  30  31  32  33  35 0
 6-311+G(2d,p)
 ****
 37  38 0
 6-311+G(2d,p)
 ****
 1  2  3  4  5  17  18  19  20  21  22  23  24  25 0
 3-21G
 ****
 27  28  29  34  36  39  40  41  42  43  44  45  46 0
 3-21G
 ****


