%nproc=1
%NoSave
%Mem=1900MB
#P OB98/GEN NMR

erre ene a

0 1
  C      -66.699    -568.044    1405.034
  O      -66.259    -567.133    1404.053
  P      -66.582    -565.569    1404.234
  C      -68.563    -564.138    1405.022
  O      -68.140    -565.416    1404.577
  C      -70.096    -564.068    1405.053
  O      -70.645    -565.042    1406.003
  C      -70.640    -562.705    1405.495
  O      -70.547    -561.755    1404.440
  C      -72.077    -563.078    1405.907
  O      -72.924    -563.153    1404.717
  C      -71.882    -564.489    1406.490
  N      -74.790    -564.694    1410.694
  C      -75.080    -564.567    1409.370
  N      -74.270    -564.493    1408.336
  C      -72.995    -564.509    1408.725
  C      -72.510    -564.582    1410.019
  C      -73.469    -564.708    1411.042
  N      -73.166    -564.897    1412.385
  N      -71.131    -564.521    1410.044
  C      -70.768    -564.425    1408.775
  N      -71.860    -564.462    1407.943
  O      -66.099    -564.700    1403.124
  O      -65.857    -565.184    1405.616
  H      -73.832    -563.198    1405.032
  H      -65.182    -564.479    1405.440
  H      -76.172    -564.560    1409.146
  H      -69.746    -564.342    1408.432
  H      -72.672    -565.173    1406.177
  H      -72.536    -562.354    1406.579
  H      -70.112    -562.356    1406.387
  H      -70.477    -564.339    1404.058
  H      -68.178    -563.386    1404.327
  H      -73.921    -565.130    1413.012
  H      -72.212    -565.204    1412.635
  H      -68.146    -563.936    1406.024
  P      -71.134    -560.291    1404.644
  C      -73.472    -559.271    1405.196
  O      -72.732    -560.425    1404.751
  O      -70.645    -559.251    1403.679
  O      -70.716    -559.919    1406.147
  H      -70.565    -558.960    1406.242
  H      -73.356    -559.191    1406.288
  H      -74.481    -559.400    1404.941
  H      -73.033    -558.371    1404.693
  H      -66.402    -569.035    1404.760
  H      -67.765    -567.999    1405.110
  H      -66.264    -567.790    1405.978

 3  4  5  6  7  8  9  10  11  12  22  25  29  30  31  32 0
 6-311+G(2d,p)
 ****
 33  36  37 0
 6-311+G(2d,p)
 ****
 1  2  13  14  15  16  17  18  19  20  21  23  24  26 0
 3-21G
 ****
 27  28  34  35  38  39  40  41  42  43  44  45  46  47  48 0
 3-21G
 ****


