%nproc=1
%NoSave
%Mem=1900MB
#P OB98/GEN NMR

erre ene a

0 1
  C      847.007      98.089    1457.291
  O      848.235      98.781    1457.381
  H      846.968      97.352    1458.100
  H      846.923      97.568    1456.336
  H      846.170      98.791    1457.417
  P      848.597      99.846    1456.234
  C      850.074      98.138    1454.955
  O      850.025      99.388    1455.627
  C      851.514      97.805    1454.554
  O      851.917      98.700    1453.467
  C      852.542      97.977    1455.694
  O      853.611      97.023    1455.461
  C      853.028      99.381    1455.447
  O      854.201      99.658    1456.182
  C      853.106      99.401    1453.919
  N      853.184     100.740    1453.384
  C      854.277     101.015    1452.530
  O      855.095     100.131    1452.290
  N      854.383     102.274    1452.001
  C      853.550     103.199    1452.344
  N      853.745     104.434    1451.798
  C      852.434     102.976    1453.279
  C      852.290     101.741    1453.751
  O      848.529     101.277    1456.632
  O      847.576      99.509    1455.052
  H      854.955      99.097    1455.864
  H      846.866     100.177    1455.030
  H      851.767     103.799    1453.549
  H      851.510     101.466    1454.442
  H      853.992      98.825    1453.575
  H      852.284     100.122    1455.794
  H      852.097      97.822    1456.688
  H      851.529      96.756    1454.148
  H      854.539     104.540    1451.176
  H      849.450      98.205    1454.066
  H      853.157     105.249    1452.005
  H      849.670      97.340    1455.612
  P      853.653      95.569    1456.169
  C      854.581      96.560    1458.364
  O      854.737      95.579    1457.320
  O      853.796      94.426    1455.188
  O      852.258      95.442    1456.957
  H      851.987      94.515    1456.970
  H      855.376      96.457    1459.072
  H      853.643      96.410    1458.857
  H      854.608      97.541    1457.938

 6  7  8  9  10  11  12  13  14  15  16  26  30  31  32  33  35 0
 6-311+G(2d,p)
 ****
 37  38 0
 6-311+G(2d,p)
 ****
 1  2  3  4  5  17  18  19  20  21  22  23  24  25 0
 3-21G
 ****
 27  28  29  34  36  39  40  41  42  43  44  45  46 0
 3-21G
 ****


