%nproc=1
%NoSave
%Mem=1900MB
#P OB98/GEN NMR

erre ene a

0 1
  C      980.037    -695.084    -122.371
  O      979.571    -695.934    -121.343
  H      980.350    -695.675    -123.239
  H      979.218    -694.419    -122.672
  H      980.868    -694.477    -122.015
  P      980.636    -697.000    -120.772
  C      980.501    -696.528    -118.219
  O      981.250    -696.369    -119.425
  C      981.397    -696.356    -117.012
  O      982.519    -697.282    -117.152
  C      982.011    -694.956    -116.852
  O      981.795    -694.470    -115.512
  C      983.498    -695.114    -117.078
  O      984.277    -694.257    -116.284
  C      983.703    -696.602    -116.712
  N      988.649    -697.647    -116.043
  C      987.644    -697.480    -115.156
  N      986.321    -697.272    -115.404
  C      986.078    -697.336    -116.732
  C      986.985    -697.542    -117.759
  C      988.338    -697.693    -117.365
  N      989.357    -697.819    -118.270
  N      986.367    -697.542    -118.995
  C      985.089    -697.269    -118.706
  N      984.866    -697.146    -117.353
  O      981.846    -696.899    -121.827
  O      980.112    -698.387    -120.663
  H      983.916    -694.276    -115.369
  H      981.972    -697.775    -122.241
  H      987.947    -697.463    -114.112
  H      984.302    -697.144    -119.440
  H      983.800    -696.753    -115.632
  H      983.697    -694.924    -118.137
  H      981.573    -694.230    -117.576
  H      980.844    -696.640    -116.129
  H      980.043    -697.536    -118.205
  H      990.321    -697.802    -117.929
  H      989.159    -697.734    -119.264
  H      979.701    -695.778    -118.210
  P      980.485    -693.580    -115.277
  C      980.822    -693.769    -112.704
  O      979.905    -693.904    -113.798
  O      979.383    -694.217    -116.239
  O      980.673    -692.108    -115.570
  H      979.051    -693.555    -116.874
  H      980.323    -694.009    -111.788
  H      981.181    -692.762    -112.662
  H      981.647    -694.436    -112.846

 6  7  8  9  10  11  12  13  14  15  25  28  32  33  34  35 0
 6-311+G(2d,p)
 ****
 36  39  40 0
 6-311+G(2d,p)
 ****
 1  2  3  4  5  16  17  18  19  20  21  22  23  24 0
 3-21G
 ****
 26  27  29  30  31  37  38  41  42  43  44  45  46  47  48 0
 3-21G
 ****


