%nproc=1
%NoSave
%Mem=1900MB
#P OB98/GEN NMR

erre ene a

0 1
  C      -67.968     -76.867     317.099
  O      -68.533     -77.537     318.228
  P      -70.079     -77.958     318.202
  C      -71.001     -76.882     320.369
  O      -70.620     -78.086     319.708
  C      -71.245     -77.157     321.857
  O      -70.088     -77.762     322.481
  C      -71.494     -75.881     322.660
  O      -72.713     -75.208     322.423
  C      -71.216     -76.340     324.084
  O      -72.350     -76.990     324.659
  C      -70.069     -77.352     323.864
  N      -68.757     -76.810     324.239
  C      -68.229     -77.258     325.445
  O      -68.824     -78.034     326.193
  N      -67.002     -76.757     325.785
  C      -66.283     -75.843     325.065
  O      -65.193     -75.410     325.428
  C      -66.901     -75.387     323.809
  C      -68.092     -75.882     323.460
  O      -70.426     -79.098     317.306
  O      -70.800     -76.611     317.696
  H      -72.078     -77.317     325.541
  H      -71.502     -76.868     317.068
  H      -66.596     -77.078     326.648
  H      -66.364     -74.657     323.217
  H      -68.564     -75.558     322.538
  H      -70.231     -78.257     324.463
  H      -70.962     -75.498     324.735
  H      -70.704     -75.165     322.402
  H      -72.076     -77.858     321.951
  H      -71.905     -76.477     319.906
  H      -70.219     -76.131     320.226
  P      -72.795     -73.655     322.032
  C      -74.517     -72.450     323.554
  O      -74.281     -73.133     322.339
  O      -72.183     -73.243     320.735
  O      -71.959     -72.981     323.227
  H      -71.496     -72.191     322.876
  H      -75.581     -72.183     323.602
  H      -73.925     -71.533     323.595
  H      -74.280     -73.092     324.407
  H      -66.935     -76.662     317.286
  H      -68.489     -75.947     316.932
  H      -68.057     -77.489     316.233

 3  4  5  6  7  8  9  10  11  12  13  23  28  29  30  31  32 0
 6-311+G(2d,p)
 ****
 33  34 0
 6-311+G(2d,p)
 ****
 1  2  14  15  16  17  18  19  20  21  22  24  25  26  27 0
 3-21G
 ****
 35  36  37  38  39  40  41  42  43  44  45 0
 3-21G
 ****


