%nproc=1
%NoSave
%Mem=1900MB
#P OB98/GEN NMR

erre ene a

0 1
  C      334.410      58.675    -107.803
  O      334.808      59.383    -108.985
  P      334.878      58.562    -110.364
  C      332.479      59.068    -111.240
  O      333.390      58.095    -110.744
  C      332.086      58.751    -112.680
  O      331.514      57.428    -112.791
  C      331.032      59.694    -113.242
  O      331.611      60.931    -113.609
  C      330.481      58.894    -114.420
  O      331.205      59.162    -115.630
  C      330.681      57.425    -113.969
  N      329.426      56.733    -113.729
  C      328.850      56.101    -114.844
  O      329.393      56.176    -115.942
  N      327.664      55.430    -114.675
  C      327.083      55.412    -113.509
  N      325.914      54.742    -113.411
  C      327.645      56.079    -112.320
  C      328.809      56.720    -112.504
  O      335.598      57.197    -109.933
  O      335.628      59.264    -111.444
  H      330.789      58.610    -116.322
  H      336.136      56.860    -110.669
  H      327.129      56.050    -111.370
  H      329.294      57.243    -111.680
  H      331.238      56.867    -114.735
  H      329.431      59.141    -114.613
  H      330.230      59.843    -112.494
  H      332.990      58.792    -113.302
  H      325.560      54.289    -114.247
  H      332.918      60.067    -111.182
  H      325.376      54.668    -112.549
  H      331.591      59.073    -110.580
  P      330.640      62.096    -114.115
  C      330.429      62.935    -111.686
  O      329.737      62.464    -112.827
  O      329.588      61.287    -115.015
  O      331.253      63.240    -114.840
  H      328.988      61.908    -115.469
  H      329.706      63.353    -110.971
  H      331.135      63.737    -111.969
  H      330.971      62.112    -111.206
  H      334.409      59.345    -106.969
  H      335.097      57.876    -107.618
  H      333.427      58.276    -107.940

 3  4  5  6  7  8  9  10  11  12  13  21  23  27  28  29  30  32 0
 6-311+G(2d,p)
 ****
 34  35 0
 6-311+G(2d,p)
 ****
 1  2  14  15  16  17  18  19  20  22  24  25  26 0
 3-21G
 ****
 31  33  36  37  38  39  40  41  42  43  44  45  46 0
 3-21G
 ****


