%nproc=1
%NoSave
%Mem=1900MB
#P OB98/GEN NMR

erre ene a

0 1
  C     -238.792     389.845     656.346
  O     -237.827     389.290     657.210
  H     -239.548     390.353     656.944
  H     -239.273     389.045     655.773
  H     -238.342     390.565     655.657
  P     -236.392     388.892     656.619
  C     -236.907     386.488     655.821
  O     -236.213     387.305     656.765
  C     -236.167     385.180     655.554
  O     -234.948     385.448     654.826
  C     -235.761     384.461     656.845
  O     -236.754     383.604     657.381
  C     -234.538     383.664     656.391
  O     -234.917     382.378     655.869
  C     -233.936     384.536     655.286
  N     -228.855     384.591     655.865
  C     -229.677     383.535     655.535
  N     -229.070     382.334     655.383
  N     -230.973     383.638     655.389
  C     -231.447     384.884     655.680
  C     -230.730     386.001     656.036
  C     -229.292     385.883     656.120
  O     -228.517     386.792     656.394
  N     -231.561     387.063     656.298
  C     -232.772     386.560     656.173
  N     -232.752     385.263     655.726
  O     -235.366     389.456     657.719
  O     -236.080     389.450     655.266
  H     -234.105     381.873     655.685
  H     -234.535     389.719     657.282
  H     -227.860     384.445     655.939
  H     -233.700     387.110     656.351
  H     -233.629     383.935     654.418
  H     -233.858     383.476     657.236
  H     -228.093     382.176     655.564
  H     -235.437     385.176     657.610
  H     -229.652     381.498     655.331
  H     -236.785     384.535     654.911
  H     -236.973     387.075     654.900
  H     -237.927     386.293     656.161
  P     -237.114     383.631     658.946
  C     -235.154     382.057     659.731
  O     -236.547     382.296     659.604
  O     -238.695     383.401     658.943
  O     -236.716     384.874     659.668
  H     -239.166     384.253     659.050
  H     -234.996     381.107     660.197
  H     -234.713     382.826     660.330
  H     -234.702     382.058     658.761

 6  7  8  9  10  11  12  13  14  15  26  29  33  34 0
 6-311+G(2d,p)
 ****
 36  38  39  40  41 0
 6-311+G(2d,p)
 ****
 1  2  3  4  5  16  17  18  19  20  21  22  23  24  25 0
 3-21G
 ****
 27  28  30  31  32  35  37  42  43  44  45  46  47 0
 3-21G
 ****
 48  49 0
 3-21G
 ****


