%nproc=1
%NoSave
%Mem=1900MB
#P OB98/GEN NMR

erre ene a

0 1
  C      601.819    -529.186     -94.527
  O      601.374    -530.053     -93.503
  H      601.988    -528.194     -94.092
  H      601.067    -529.102     -95.312
  H      602.760    -529.552     -94.946
  P      601.031    -531.558     -93.943
  C      602.459    -533.635     -94.491
  O      602.462    -532.271     -94.077
  C      603.887    -534.148     -94.653
  O      604.533    -533.412     -95.725
  C      604.742    -533.969     -93.389
  O      605.604    -535.093     -93.236
  C      605.577    -532.737     -93.698
  O      606.797    -532.713     -92.966
  C      605.746    -532.847     -95.211
  N      609.412    -529.595     -96.667
  C      609.448    -530.872     -96.218
  N      608.428    -531.675     -95.876
  C      607.252    -531.051     -96.063
  C      607.042    -529.757     -96.509
  C      608.201    -529.008     -96.818
  N      608.161    -527.700     -97.246
  N      605.695    -529.466     -96.535
  C      605.098    -530.564     -96.130
  N      605.996    -531.547     -95.818
  O      600.130    -531.701     -95.124
  O      600.462    -532.178     -92.574
  H      606.587    -532.657     -92.003
  H      601.013    -531.912     -91.816
  H      610.448    -531.302     -96.127
  H      604.031    -530.699     -96.024
  H      606.589    -533.494     -95.488
  H      605.009    -531.834     -93.438
  H      604.143    -533.835     -92.493
  H      603.860    -535.198     -94.960
  H      601.933    -533.735     -95.446
  H      609.031    -527.237     -97.460
  H      607.261    -527.246     -97.390
  H      601.923    -534.218     -93.736
  P      604.975    -536.476     -92.707
  C      603.973    -538.636     -93.710
  O      604.565    -537.363     -93.982
  O      603.929    -536.352     -91.657
  O      606.258    -537.246     -92.156
  H      606.009    -537.741     -91.355
  H      603.746    -539.128     -94.633
  H      603.073    -538.498     -93.148
  H      604.657    -539.234     -93.146

 6  7  8  9  10  11  12  13  14  15  25  28  32  33  34  35 0
 6-311+G(2d,p)
 ****
 36  39  40 0
 6-311+G(2d,p)
 ****
 1  2  3  4  5  16  17  18  19  20  21  22  23  24 0
 3-21G
 ****
 26  27  29  30  31  37  38  41  42  43  44  45  46  47 0
 3-21G
 ****
 48 0
 3-21G
 ****


