%nproc=1
%NoSave
%Mem=1900MB
#P OB98/GEN NMR

erre ene a

0 1
  C      -48.067    -132.368     -73.378
  O      -48.773    -133.455     -73.952
  P      -48.023    -134.873     -74.041
  C      -47.449    -134.325     -76.522
  O      -46.984    -134.770     -75.258
  C      -46.790    -135.125     -77.649
  O      -45.350    -135.012     -77.515
  C      -47.128    -136.621     -77.656
  O      -47.125    -137.044     -79.026
  C      -45.948    -137.242     -76.929
  O      -45.788    -138.627     -77.223
  C      -44.814    -136.350     -77.419
  N      -39.908    -137.479     -76.913
  C      -40.764    -137.700     -77.979
  N      -40.213    -138.247     -79.083
  N      -42.038    -137.411     -77.961
  C      -42.441    -136.856     -76.794
  C      -41.703    -136.624     -75.657
  C      -40.287    -136.914     -75.702
  O      -39.478    -136.654     -74.815
  N      -42.481    -136.132     -74.643
  C      -43.671    -135.990     -75.193
  N      -43.685    -136.373     -76.508
  O      -49.166    -135.845     -74.598
  O      -47.422    -135.369     -72.764
  H      -44.951    -138.924     -76.814
  H      -49.631    -136.297     -73.869
  H      -38.931    -137.706     -76.992
  H      -44.551    -135.614     -74.695
  H      -44.446    -136.644     -78.411
  H      -46.089    -137.144     -75.846
  H      -39.231    -138.466     -79.178
  H      -48.087    -136.857     -77.187
  H      -40.808    -138.389     -79.890
  H      -47.069    -134.665     -78.605
  H      -47.184    -133.269     -76.645
  H      -48.539    -134.415     -76.566
  P      -48.290    -138.034     -79.508
  C      -46.952    -140.227     -79.175
  O      -48.060    -139.442     -78.782
  O      -47.891    -138.337     -81.032
  O      -49.670    -137.469     -79.422
  H      -48.700    -138.478     -81.558
  H      -46.703    -140.913     -78.363
  H      -46.077    -139.608     -79.393
  H      -47.215    -140.810     -80.061
  H      -48.687    -131.496     -73.386
  H      -47.179    -132.180     -73.945
  H      -47.802    -132.608     -72.370

 3  4  5  6  7  8  9  10  11  12  23  26  30  31 0
 6-311+G(2d,p)
 ****
 33  35  36  37  38 0
 6-311+G(2d,p)
 ****
 1  2  13  14  15  16  17  18  19  20  21  22  24  25 0
 3-21G
 ****
 27  28  29  32  34  39  40  41  42  43  44  45  46  47  48  49 0
 3-21G
 ****


