%nproc=1
%NoSave
%Mem=1900MB
#P OB98/GEN NMR

erre ene a

0 1
  C      511.350    -188.066    -545.043
  O      510.108    -188.213    -545.702
  H      511.782    -189.057    -544.885
  H      511.227    -187.576    -544.078
  H      512.035    -187.488    -545.672
  P      509.156    -186.925    -545.826
  C      506.896    -187.382    -544.657
  O      508.244    -186.937    -544.499
  C      506.785    -188.885    -544.402
  O      507.147    -189.187    -543.035
  C      505.372    -189.428    -544.563
  O      504.906    -189.435    -545.892
  C      505.428    -190.734    -543.776
  O      505.916    -191.836    -544.543
  C      506.450    -190.392    -542.661
  N      505.803    -190.261    -541.356
  C      505.708    -191.429    -540.611
  O      506.118    -192.520    -540.996
  N      505.092    -191.306    -539.392
  C      504.529    -190.175    -538.890
  O      503.953    -190.146    -537.817
  C      504.631    -188.976    -539.742
  C      505.255    -189.069    -540.915
  O      508.373    -186.805    -547.099
  O      510.155    -185.698    -545.565
  H      506.876    -191.692    -544.663
  H      509.751    -184.846    -545.873
  H      505.030    -192.141    -538.833
  H      504.193    -188.061    -539.375
  H      505.343    -188.202    -541.567
  H      507.208    -191.181    -542.584
  H      504.447    -191.015    -543.393
  H      504.691    -188.770    -544.008
  H      507.489    -189.405    -545.064
  H      506.599    -187.168    -545.690
  H      506.242    -186.826    -543.978
  P      503.374    -189.660    -546.288
  C      502.838    -191.966    -547.359
  O      503.043    -191.226    -546.155
  O      502.872    -188.914    -547.483
  O      502.623    -189.048    -544.986
  H      501.798    -188.638    -545.302
  H      502.628    -192.987    -547.119
  H      503.720    -191.916    -547.963
  H      502.013    -191.549    -547.898

 6  7  8  9  10  11  12  13  14  15  16  26  31  32  33  34  35 0
 6-311+G(2d,p)
 ****
 36  37 0
 6-311+G(2d,p)
 ****
 1  2  3  4  5  17  18  19  20  21  22  23  24  25 0
 3-21G
 ****
 27  28  29  30  38  39  40  41  42  43  44  45 0
 3-21G
 ****


