%nproc=1
%NoSave
%Mem=1900MB
#P OB98/GEN NMR

erre ene a

0 1
  C       32.593     -86.344      77.105
  O       33.992     -86.123      77.079
  P       34.959     -87.372      76.802
  C       33.859     -88.751      78.749
  O       35.030     -88.205      78.171
  C       33.752     -88.341      80.221
  O       32.551     -88.933      80.789
  C       34.936     -88.782      81.091
  O       35.149     -87.757      82.069
  C       34.417     -90.048      81.749
  O       35.113     -90.369      82.943
  C       32.945     -89.677      81.958
  N       32.073     -90.838      82.144
  C       31.373     -90.940      83.341
  O       31.461     -90.126      84.258
  N       30.574     -92.047      83.469
  C       30.460     -93.067      82.571
  O       29.742     -94.043      82.745
  C       31.260     -92.927      81.346
  C       32.008     -91.834      81.188
  O       36.380     -86.649      76.711
  O       34.579     -88.171      75.602
  H       36.464     -85.896      77.321
  H       34.699     -91.163      83.330
  H       30.028     -92.123      84.315
  H       31.209     -93.724      80.614
  H       32.607     -91.710      80.294
  H       32.846     -89.003      82.817
  H       34.524     -90.889      81.056
  H       35.849     -88.936      80.509
  H       33.629     -87.251      80.266
  H       33.896     -89.841      78.686
  H       32.984     -88.410      78.185
  P       36.326     -86.690      81.807
  C       37.812     -88.064      83.466
  O       37.356     -86.805      83.026
  O       35.545     -85.324      82.128
  O       36.904     -86.716      80.431
  H       35.051     -85.359      82.962
  H       38.727     -87.924      84.047
  H       38.031     -88.726      82.624
  H       37.056     -88.525      84.107
  H       32.090     -85.420      77.300
  H       32.357     -87.048      77.876
  H       32.275     -86.731      76.159

 3  4  5  6  7  8  9  10  11  12  13  24  28  29  30  31  32 0
 6-311+G(2d,p)
 ****
 33  34 0
 6-311+G(2d,p)
 ****
 1  2  14  15  16  17  18  19  20  21  22  23  25  26  27 0
 3-21G
 ****
 35  36  37  38  39  40  41  42  43  44  45 0
 3-21G
 ****


