%nproc=1
%NoSave
%Mem=1900MB
#P OB98/GEN NMR

erre ene a

0 1
  C      235.157    -633.341    -112.966
  O      234.694    -632.211    -112.251
  H      236.116    -633.650    -112.539
  H      235.308    -633.084    -114.014
  H      234.448    -634.169    -112.877
  P      233.253    -631.607    -112.606
  C      231.344    -630.469    -111.305
  O      232.684    -630.938    -111.257
  C      230.645    -630.716    -109.976
  O      230.325    -632.130    -109.873
  C      231.481    -630.331    -108.752
  O      230.604    -629.775    -107.763
  C      232.022    -631.663    -108.259
  O      232.309    -631.653    -106.866
  C      230.891    -632.622    -108.642
  N      232.602    -636.680    -106.176
  C      232.124    -635.482    -105.684
  N      232.107    -635.323    -104.343
  N      231.681    -634.510    -106.451
  C      231.734    -634.812    -107.777
  C      232.194    -635.963    -108.377
  C      232.687    -637.014    -107.521
  O      233.134    -638.093    -107.887
  N      232.111    -635.867    -109.748
  C      231.609    -634.668    -109.969
  N      231.370    -633.985    -108.803
  O      232.302    -632.555    -113.273
  O      233.574    -630.344    -113.536
  H      232.645    -632.546    -106.637
  H      233.445    -630.567    -114.478
  H      232.933    -637.388    -105.531
  H      231.399    -634.246    -110.948
  H      230.095    -632.657    -107.883
  H      232.945    -631.906    -108.801
  H      232.416    -636.035    -103.697
  H      232.279    -629.617    -108.990
  H      231.735    -634.459    -103.965
  H      229.685    -630.184    -109.980
  H      230.819    -631.000    -112.106
  H      231.345    -629.395    -111.534
  P      230.779    -628.228    -107.370
  C      229.639    -626.530    -105.797
  O      229.760    -627.901    -106.174
  O      230.751    -627.269    -108.509
  O      232.196    -628.203    -106.625
  H      232.614    -627.321    -106.768
  H      228.936    -626.441    -104.996
  H      229.299    -625.958    -106.635
  H      230.592    -626.162    -105.478

 6  7  8  9  10  11  12  13  14  15  26  29  33  34 0
 6-311+G(2d,p)
 ****
 36  38  39  40  41 0
 6-311+G(2d,p)
 ****
 1  2  3  4  5  16  17  18  19  20  21  22  23  24  25 0
 3-21G
 ****
 27  28  30  31  32  35  37  42  43  44  45  46  47 0
 3-21G
 ****
 48  49 0
 3-21G
 ****


