%nproc=1
%NoSave
%Mem=1900MB
#P OB98/GEN NMR

erre ene a

0 1
  C     -243.109     509.306     283.341
  O     -243.492     509.413     284.715
  P     -244.516     510.594     285.088
  C     -244.328     513.136     285.630
  O     -243.647     511.922     285.337
  C     -243.926     513.665     287.009
  O     -244.332     512.757     288.052
  C     -242.421     513.838     287.199
  O     -241.952     515.044     286.603
  C     -242.325     513.910     288.717
  O     -242.621     515.251     289.160
  C     -243.425     512.941     289.172
  N     -242.893     509.665     293.009
  C     -243.473     510.920     292.984
  N     -244.011     511.354     294.150
  N     -243.522     511.679     291.925
  C     -242.976     511.108     290.827
  C     -242.366     509.878     290.722
  C     -242.288     509.054     291.911
  O     -241.756     507.948     291.990
  N     -241.929     509.635     289.437
  C     -242.296     510.709     288.763
  N     -242.926     511.637     289.564
  O     -245.003     510.193     286.558
  O     -245.660     510.734     284.140
  H     -243.566     515.407     288.967
  H     -245.895     510.558     286.732
  H     -242.874     509.126     293.857
  H     -242.144     510.861     287.702
  H     -244.021     513.348     289.997
  H     -241.328     513.664     289.091
  H     -244.071     510.786     294.984
  H     -241.878     512.958     286.832
  H     -244.471     512.254     294.145
  H     -244.437     514.627     287.165
  H     -245.408     512.974     285.607
  H     -244.102     513.869     284.848
  P     -240.630     514.943     285.697
  C     -238.096     514.812     286.239
  O     -239.403     515.068     286.717
  O     -240.629     516.338     284.911
  O     -240.608     513.770     284.771
  H     -240.184     516.239     284.047
  H     -237.938     515.268     285.256
  H     -237.935     513.730     286.172
  H     -237.372     515.232     286.945
  H     -242.430     508.488     283.223
  H     -242.632     510.213     283.032
  H     -243.978     509.138     282.740

 3  4  5  6  7  8  9  10  11  12  23  26  30  31  33  0
 6-311+G(2d,p)
 ****
 35  36  37  38 0
 6-311+G(2d,p)
 ****
 1  2  13  14  15  16  17  18  19  20  21  22  24  25  27  28  29 0
 3-21G
 ****
 32  34  39  40  41  42  43  44  45  46  47  48  49 0
 3-21G
 ****


