%nproc=1
%NoSave
%Mem=1900MB
#P OB98/GEN NMR

erre ene a

0 1
  C      105.900     402.716     -65.027
  O      105.261     403.937     -64.726
  H      106.977     402.889     -65.079
  H      105.555     402.346     -65.996
  H      105.703     401.966     -64.256
  P      103.726     403.917     -64.276
  C      102.480     404.061     -62.019
  O      103.704     403.774     -62.676
  C      102.707     404.295     -60.519
  O      103.368     403.132     -59.959
  C      103.632     405.494     -60.274
  O      103.376     406.117     -59.019
  C      105.009     404.852     -60.235
  O      105.972     405.633     -59.528
  C      104.701     403.509     -59.576
  N      109.475     401.746     -59.237
  C      108.972     402.982     -58.875
  N      109.857     403.862     -58.347
  N      107.723     403.328     -59.031
  C      106.967     402.379     -59.634
  C      107.356     401.130     -60.063
  C      108.734     400.743     -59.847
  O      109.237     399.671     -60.173
  N      106.310     400.449     -60.637
  C      105.296     401.286     -60.562
  N      105.636     402.462     -59.943
  O      103.210     402.477     -64.756
  O      102.873     405.019     -64.828
  H      106.833     405.192     -59.621
  H      102.241     402.478     -64.856
  H      110.436     401.518     -59.067
  H      104.294     401.084     -60.928
  H      104.723     403.600     -58.482
  H      105.368     404.750     -61.262
  H      110.854     403.701     -58.392
  H      103.568     406.238     -61.059
  H      109.585     404.848     -58.373
  H      101.746     404.393     -60.004
  H      101.822     403.201     -62.180
  H      101.994     404.927     -62.477
  P      102.139     407.128     -58.905
  C       99.607     406.381     -59.148
  O      100.830     406.336     -58.441
  O      101.827     407.524     -60.419
  O      102.402     408.332     -58.053
  H      101.993     408.475     -60.563
  H       98.882     405.774     -58.646
  H       99.755     406.012     -60.141
  H       99.257     407.391     -59.192

 6  7  8  9  10  11  12  13  14  15  26  29  33  34 0
 6-311+G(2d,p)
 ****
 36  38  39  40  41 0
 6-311+G(2d,p)
 ****
 1  2  3  4  5  16  17  18  19  20  21  22  23  24  25 0
 3-21G
 ****
 27  28  30  31  32  35  37  42  43  44  45  46  47 0
 3-21G
 ****
 48  49 0
 3-21G
 ****


