%nproc=1
%NoSave
%Mem=1900MB
#P OB98/GEN NMR

erre ene a

0 1
  C      -65.145     441.712    -132.401
  O      -64.374     442.896    -132.368
  H      -65.786     441.700    -133.290
  H      -64.472     440.853    -132.440
  H      -65.761     441.641    -131.499
  P      -65.190     444.279    -132.420
  C      -64.428     444.813    -130.001
  O      -65.520     444.666    -130.896
  C      -64.365     446.246    -129.478
  O      -65.562     446.553    -128.728
  C      -63.212     446.527    -128.523
  O      -61.986     446.718    -129.213
  C      -63.700     447.810    -127.863
  O      -63.425     448.932    -128.731
  C      -65.213     447.585    -127.767
  N      -67.541     449.022    -123.421
  C      -67.254     449.696    -124.554
  N      -66.624     449.260    -125.666
  C      -66.292     447.962    -125.536
  C      -66.523     447.146    -124.444
  C      -67.172     447.726    -123.346
  N      -67.450     447.032    -122.185
  N      -66.051     445.872    -124.681
  C      -65.546     445.913    -125.901
  N      -65.661     447.159    -126.456
  O      -66.616     443.849    -133.008
  O      -64.561     445.360    -133.236
  H      -62.474     448.887    -128.944
  H      -66.950     444.566    -133.581
  H      -67.578     450.741    -124.575
  H      -65.096     445.076    -126.409
  H      -65.776     448.486    -128.044
  H      -63.216     448.012    -126.908
  H      -63.129     445.741    -127.762
  H      -64.329     446.922    -130.342
  H      -63.496     444.583    -130.524
  H      -68.081     447.434    -121.519
  H      -67.168     446.056    -122.137
  H      -64.558     444.111    -129.171
  P      -60.816     445.643    -128.958
  C      -60.459     445.185    -131.494
  O      -60.855     444.664    -130.227
  O      -61.407     444.738    -127.777
  O      -59.484     446.216    -128.612
  H      -60.674     444.326    -127.278
  H      -60.538     444.418    -132.236
  H      -59.446     445.525    -131.439
  H      -61.096     446.003    -131.758

 6  7  8  9  10  11  12  13  14  15  25  28  32  33  34  35 0
 6-311+G(2d,p)
 ****
 36  39  40 0
 6-311+G(2d,p)
 ****
 1  2  3  4  5  16  17  18  19  20  21  22  23  24 0
 3-21G
 ****
 26  27  29  30  31  37  38  41  42  43  44  45  46  47  48 0
 3-21G
 ****


