%nproc=1
%NoSave
%Mem=1900MB
#P OB98/GEN NMR

erre ene a

0 1
  C     -106.927     297.811    -111.106
  O     -106.457     297.371    -112.363
  H     -106.217     298.536    -110.702
  H     -107.004     296.972    -110.409
  H     -107.901     298.299    -111.211
  P     -107.288     296.245    -113.144
  C     -106.440     296.837    -115.509
  O     -106.444     295.876    -114.458
  C     -105.016     297.350    -115.752
  O     -104.690     298.274    -114.686
  C     -103.975     296.220    -115.746
  O     -103.148     296.208    -116.908
  C     -103.290     296.385    -114.394
  O     -101.965     295.894    -114.340
  C     -103.425     297.887    -114.118
  N     -103.371     298.235    -112.699
  C     -102.732     299.426    -112.361
  O     -102.234     300.216    -113.159
  N     -102.687     299.710    -111.018
  C     -103.192     298.941    -110.016
  O     -103.127     299.251    -108.831
  C     -103.834     297.686    -110.435
  C     -103.894     297.394    -111.738
  O     -108.725     296.557    -113.393
  O     -107.121     294.937    -112.233
  H     -101.629     296.043    -113.433
  H     -107.937     294.793    -111.718
  H     -102.236     300.575    -110.762
  H     -104.240     297.043    -109.665
  H     -104.360     296.477    -112.083
  H     -102.641     298.444    -114.627
  H     -103.869     295.829    -113.645
  H     -104.464     295.239    -115.776
  H     -104.997     297.910    -116.696
  H     -107.094     297.663    -115.214
  H     -106.832     296.382    -116.425
  P     -103.139     295.049    -118.004
  C     -102.732     296.780    -119.931
  O     -102.339     295.578    -119.284
  O     -104.451     294.384    -118.253
  O     -102.148     293.946    -117.366
  H     -102.476     293.072    -117.660
  H     -102.082     296.968    -120.760
  H     -102.672     297.594    -119.239
  H     -103.738     296.684    -120.282

 6  7  8  9  10  11  12  13  14  15  16  26  31  32  33  34  35 0
 6-311+G(2d,p)
 ****
 36  37 0
 6-311+G(2d,p)
 ****
 1  2  3  4  5  17  18  19  20  21  22  23  24  25 0
 3-21G
 ****
 27  28  29  30  38  39  40  41  42  43  44  45 0
 3-21G
 ****


