%nproc=1
%NoSave
%Mem=1900MB
#P OB98/GEN NMR

erre ene a

0 1
  C       12.083       7.328      43.587
  O       11.429       6.297      44.297
  H       11.624       8.283      43.858
  H       11.974       7.181      42.510
  H       13.143       7.363      43.855
  P       11.869       4.781      44.030
  C       12.328       2.957      45.798
  O       11.411       3.933      45.314
  C       11.907       2.484      47.194
  O       12.195       3.555      48.127
  C       10.408       2.161      47.277
  O       10.144       0.861      47.798
  C        9.835       3.354      48.033
  O        8.645       3.085      48.743
  C       11.011       3.809      48.905
  N       10.946       5.215      49.299
  C        9.909       5.591      50.147
  O        9.060       4.832      50.609
  N        9.872       6.922      50.479
  C       10.737       7.882      50.053
  O       10.657       9.057      50.390
  C       11.797       7.427      49.141
  C       11.851       6.134      48.810
  O       13.290       4.581      43.625
  O       10.859       4.280      42.892
  H        8.399       3.898      49.231
  H       11.315       4.276      42.030
  H        9.131       7.204      51.103
  H       12.497       8.165      48.774
  H       12.622       5.763      48.140
  H       11.067       3.212      49.814
  H        9.604       4.141      47.305
  H        9.960       2.128      46.278
  H       12.524       1.624      47.476
  H       13.320       3.417      45.836
  H       12.355       2.105      45.110
  P        9.881      -0.437      46.908
  C        9.542      -2.987      47.414
  O        9.524      -1.650      47.889
  O       10.889      -0.704      45.843
  O        8.478      -0.110      46.182
  H        8.512      -0.542      45.304
  H        9.278      -3.652      48.210
  H       10.523      -3.226      47.060
  H        8.839      -3.091      46.614

 6  7  8  9  10  11  12  13  14  15  16  26  31  32  33  34  35 0
 6-311+G(2d,p)
 ****
 36  37 0
 6-311+G(2d,p)
 ****
 1  2  3  4  5  17  18  19  20  21  22  23  24  25 0
 3-21G
 ****
 27  28  29  30  38  39  40  41  42  43  44  45 0
 3-21G
 ****


