%nproc=1
%NoSave
%Mem=1900MB
#P OB98/GEN NMR

erre ene a

0 1
  C       15.441    -178.272     -19.248
  O       14.353    -178.171     -20.135
  P       13.628    -176.797     -20.500
  C       11.638    -175.393     -19.541
  O       12.550    -176.470     -19.358
  C       11.148    -174.847     -18.191
  O       12.303    -174.473     -17.397
  C       10.295    -173.577     -18.369
  O        9.148    -173.528     -17.530
  C       11.321    -172.457     -18.219
  O       10.745    -171.201     -17.896
  C       12.272    -173.045     -17.178
  N       15.271    -168.949     -16.853
  C       13.941    -169.085     -16.501
  N       13.287    -167.942     -16.195
  N       13.309    -170.233     -16.487
  C       14.061    -171.272     -16.925
  C       15.386    -171.257     -17.298
  C       16.080    -169.991     -17.278
  O       17.225    -169.805     -17.691
  N       15.800    -172.486     -17.753
  C       14.716    -173.235     -17.687
  N       13.626    -172.532     -17.222
  O       13.220    -176.611     -21.926
  O       14.792    -175.721     -20.179
  H       10.304    -171.293     -17.030
  H       14.693    -174.991     -20.824
  H       15.679    -168.024     -16.924
  H       14.655    -174.275     -17.988
  H       11.913    -172.868     -16.165
  H       11.822    -172.340     -19.188
  H       13.707    -167.034     -16.341
  H        9.872    -173.538     -19.378
  H       12.270    -167.982     -16.180
  H       10.614    -175.641     -17.656
  H       10.795    -175.796     -20.113
  H       12.097    -174.597     -20.134
  P        7.807    -172.676     -17.717
  C        6.971    -170.293     -17.258
  O        8.073    -171.180     -17.207
  O        6.794    -173.251     -16.622
  O        7.199    -172.764     -19.080
  H        5.892    -173.297     -16.999
  H        7.339    -169.268     -17.153
  H        6.285    -170.510     -16.433
  H        6.439    -170.385     -18.209
  H       15.745    -179.295     -19.172
  H       15.149    -177.914     -18.283
  H       16.256    -177.684     -19.615

 3  4  5  6  7  8  9  10  11  12  23  26  30  31 0
 6-311+G(2d,p)
 ****
 33  35  36  37  38 0
 6-311+G(2d,p)
 ****
 1  2  13  14  15  16  17  18  19  20  21  22  24  25 0
 3-21G
 ****
 27  28  29  32  34  39  40  41  42  43  44  45  46  47  48  49 0
 3-21G
 ****


