%nproc=1
%NoSave
%Mem=1900MB
#P OB98/GEN NMR

erre ene a

0 1
  C      146.376    -895.893     -77.094
  O      146.891    -894.975     -78.035
  H      147.194    -896.548     -76.772
  H      145.601    -896.505     -77.563
  H      145.967    -895.381     -76.218
  P      146.051    -893.643     -78.347
  C      147.256    -891.960     -76.806
  O      146.080    -892.727     -77.029
  C      147.123    -890.535     -77.360
  O      145.906    -889.919     -76.870
  C      148.267    -889.622     -76.915
  O      149.438    -889.698     -77.692
  C      147.628    -888.242     -77.022
  O      147.735    -887.726     -78.364
  C      146.160    -888.523     -76.671
  N      144.162    -884.988     -73.540
  C      144.373    -884.930     -74.906
  N      144.067    -883.747     -75.499
  N      144.858    -885.919     -75.607
  C      145.207    -886.996     -74.873
  C      145.054    -887.175     -73.504
  C      144.473    -886.092     -72.745
  O      144.261    -886.095     -71.532
  N      145.520    -888.410     -73.108
  C      146.018    -888.939     -74.209
  N      145.819    -888.137     -75.313
  O      144.530    -894.155     -78.383
  O      146.408    -892.944     -79.622
  H      148.647    -887.864     -78.674
  H      143.997    -893.568     -78.948
  H      143.752    -884.217     -73.056
  H      146.504    -889.910     -74.264
  H      145.480    -887.974     -77.334
  H      148.112    -887.514     -76.360
  H      143.811    -882.926     -74.989
  H      148.512    -889.813     -75.860
  H      144.451    -883.572     -76.437
  H      147.039    -890.584     -78.452
  H      148.068    -892.481     -77.313
  H      147.504    -891.932     -75.740
  P      150.861    -889.340     -77.046
  C      151.061    -891.710     -75.968
  O      151.056    -890.306     -75.782
  O      150.601    -887.905     -76.401
  O      152.010    -889.310     -78.007
  H      150.896    -887.189     -77.001
  H      151.201    -892.194     -75.024
  H      151.858    -891.979     -76.629
  H      150.127    -892.017     -76.391

 6  7  8  9  10  11  12  13  14  15  26  29  33  34 0
 6-311+G(2d,p)
 ****
 36  38  39  40  41 0
 6-311+G(2d,p)
 ****
 1  2  3  4  5  16  17  18  19  20  21  22  23  24  25 0
 3-21G
 ****
 27  28  30  31  32  35  37  42  43  44  45  46  47 0
 3-21G
 ****
 48  49 0
 3-21G
 ****


