%nproc=1
%NoSave
%Mem=1900MB
#P OB98/GEN NMR

erre ene a

0 1
  C      379.951    -208.238     -87.578
  O      378.679    -207.787     -88.037
  P      377.615    -208.884     -88.535
  C      378.793    -208.778     -90.836
  O      378.204    -209.615     -89.841
  C      378.874    -209.513     -92.182
  O      379.783    -210.633     -92.058
  C      377.544    -210.109     -92.670
  O      376.687    -209.290     -93.469
  C      378.038    -211.232     -93.578
  O      378.359    -210.702     -94.882
  C      379.317    -211.719     -92.897
  N      379.265    -216.834     -92.976
  C      379.502    -215.911     -93.937
  N      379.496    -214.571     -93.837
  C      379.221    -214.195     -92.577
  C      378.945    -215.012     -91.492
  C      378.979    -216.402     -91.729
  N      378.723    -217.330     -90.748
  N      378.703    -214.258     -90.364
  C      378.797    -213.005     -90.768
  N      379.121    -212.910     -92.095
  O      376.203    -208.421     -88.640
  O      377.764    -210.027     -87.419
  H      378.806    -211.420     -95.365
  H      376.875    -210.406     -87.239
  H      379.724    -216.313     -94.927
  H      378.639    -212.140     -90.136
  H      380.114    -211.940     -93.609
  H      377.282    -212.004     -93.732
  H      376.978    -210.529     -91.836
  H      379.274    -208.832     -92.941
  H      379.796    -208.488     -90.513
  H      378.719    -218.305     -91.014
  H      378.454    -217.026     -89.825
  H      378.198    -207.863     -90.884
  P      375.329    -208.682     -92.880
  C      373.904    -210.756     -93.615
  O      374.396    -209.947     -92.559
  O      374.689    -207.628     -93.719
  O      375.777    -208.193     -91.422
  H      375.994    -208.909     -90.804
  H      373.481    -211.670     -93.186
  H      374.714    -211.032     -94.304
  H      373.121    -210.219     -94.156
  H      380.543    -207.397     -87.283
  H      380.448    -208.765     -88.365
  H      379.817    -208.891     -86.741

 3  4  5  6  7  8  9  10  11  12  22  25  29  30  31  32 0
 6-311+G(2d,p)
 ****
 33  36  37 0
 6-311+G(2d,p)
 ****
 1  2  13  14  15  16  17  18  19  20  21  23  24  26 0
 3-21G
 ****
 27  28  34  35  38  39  40  41  42  43  44  45  46  47  48 0
 3-21G
 ****


