%nproc=1
%NoSave
%Mem=1900MB
#P OB98/GEN NMR

erre ene a

0 1
  C     -246.938       5.318    1254.019
  O     -245.948       4.759    1254.859
  H     -246.818       6.401    1253.997
  H     -247.938       5.077    1254.391
  H     -246.822       4.930    1252.995
  P     -246.025       3.175    1255.112
  C     -244.097       3.014    1253.367
  O     -245.370       2.558    1253.778
  C     -243.096       1.854    1253.367
  O     -243.626       0.737    1252.616
  C     -241.736       2.176    1252.721
  O     -240.893       2.934    1253.552
  C     -241.220       0.776    1252.502
  O     -240.787       0.217    1253.757
  C     -242.493       0.066    1251.987
  N     -242.624       0.097    1250.523
  C     -242.143      -1.018    1249.823
  O     -241.631      -1.964    1250.434
  N     -242.214      -1.018    1248.459
  C     -242.738      -0.014    1247.827
  N     -242.782      -0.081    1246.463
  C     -243.266       1.175    1248.526
  C     -243.185       1.161    1249.852
  O     -247.580       2.848    1254.927
  O     -245.438       2.680    1256.393
  H     -241.485       0.393    1254.397
  H     -247.727       1.868    1254.910
  H     -243.695       2.000    1247.965
  H     -243.565       1.991    1250.428
  H     -242.523      -0.999    1252.312
  H     -240.368       0.728    1251.818
  H     -241.870       2.662    1251.746
  H     -242.963       1.519    1254.403
  H     -242.354      -0.872    1246.015
  H     -243.762       3.793    1254.068
  H     -243.036       0.723    1245.901
  H     -244.142       3.441    1252.368
  P     -239.873       3.958    1252.836
  C     -240.818       6.110    1253.981
  O     -240.616       5.383    1252.771
  O     -239.882       3.463    1251.313
  O     -238.495       3.989    1253.417
  H     -239.005       3.585    1250.891
  H     -241.322       7.029    1253.765
  H     -239.871       6.320    1254.433
  H     -241.412       5.527    1254.653

 6  7  8  9  10  11  12  13  14  15  16  26  30  31  32  33  35 0
 6-311+G(2d,p)
 ****
 37  38 0
 6-311+G(2d,p)
 ****
 1  2  3  4  5  17  18  19  20  21  22  23  24  25 0
 3-21G
 ****
 27  28  29  34  36  39  40  41  42  43  44  45  46 0
 3-21G
 ****


