%nproc=1
%NoSave
%Mem=1900MB
#P OB98/GEN NMR

erre ene a

0 1
  C      -18.493     -11.210      44.350
  O      -18.743     -12.199      45.326
  H      -19.179     -10.373      44.515
  H      -18.677     -11.617      43.353
  H      -17.466     -10.839      44.418
  P      -17.702     -13.406      45.495
  C      -15.672     -12.246      46.592
  O      -16.822     -13.056      46.793
  C      -14.743     -12.344      47.804
  O      -15.560     -12.615      48.986
  C      -13.697     -13.472      47.687
  O      -12.494     -13.049      48.340
  C      -14.358     -14.579      48.484
  O      -13.432     -15.551      48.903
  C      -15.001     -13.784      49.618
  N      -16.010     -14.574      50.322
  C      -16.612     -13.982      51.426
  O      -16.332     -12.856      51.834
  N      -17.507     -14.760      52.110
  C      -17.769     -16.076      51.868
  O      -18.520     -16.748      52.557
  C      -17.061     -16.666      50.718
  C      -16.233     -15.899      50.003
  O      -16.908     -13.759      44.282
  O      -18.595     -14.630      46.015
  H      -12.722     -15.130      49.426
  H      -18.145     -15.478      45.839
  H      -17.959     -14.340      52.908
  H      -17.233     -17.713      50.503
  H      -15.683     -16.304      49.160
  H      -14.245     -13.444      50.335
  H      -15.117     -15.081      47.872
  H      -13.484     -13.753      46.655
  H      -14.262     -11.372      47.968
  H      -16.002     -11.208      46.458
  H      -15.148     -12.573      45.689
  P      -11.074     -13.058      47.592
  C      -11.158     -11.129      45.900
  O      -10.654     -11.566      47.158
  O      -10.969     -14.065      46.491
  O      -10.021     -13.414      48.751
  H       -9.402     -14.093      48.425
  H      -10.822     -10.131      45.708
  H      -12.228     -11.148      45.918
  H      -10.803     -11.779      45.128

 6  7  8  9  10  11  12  13  14  15  16  26  31  32  33  34  35 0
 6-311+G(2d,p)
 ****
 36  37 0
 6-311+G(2d,p)
 ****
 1  2  3  4  5  17  18  19  20  21  22  23  24  25 0
 3-21G
 ****
 27  28  29  30  38  39  40  41  42  43  44  45 0
 3-21G
 ****


