%nproc=1
%NoSave
%Mem=1900MB
#P OB98/GEN NMR

erre ene a

0 1
  C     2079.655    1771.540    -896.241
  O     2081.036    1771.530    -896.011
  H     2079.096    1771.767    -895.341
  H     2079.447    1772.336    -896.991
  H     2079.337    1770.573    -896.671
  P     2081.572    1770.415    -894.961
  C     2084.019    1770.506    -895.821
  O     2083.153    1770.738    -894.711
  C     2085.452    1770.627    -895.331
  O     2085.674    1769.683    -894.241
  C     2086.533    1770.311    -896.391
  O     2086.779    1771.373    -897.261
  C     2087.724    1770.005    -895.471
  O     2088.291    1771.202    -895.031
  C     2087.078    1769.201    -894.321
  N     2089.763    1764.906    -893.691
  C     2090.089    1766.170    -893.391
  N     2089.292    1767.329    -893.591
  C     2088.098    1766.947    -894.141
  C     2087.650    1765.665    -894.491
  C     2088.559    1764.645    -894.241
  N     2088.282    1763.309    -894.511
  N     2086.419    1765.699    -895.091
  C     2086.103    1766.991    -895.031
  N     2087.082    1767.770    -894.521
  O     2081.600    1769.055    -895.801
  O     2080.781    1770.284    -893.691
  H     2088.616    1771.697    -895.801
  H     2081.571    1768.272    -895.201
  H     2091.028    1766.403    -892.931
  H     2085.093    1767.383    -895.421
  H     2087.543    1769.415    -893.351
  H     2088.529    1769.432    -896.031
  H     2086.229    1769.390    -896.971
  H     2085.620    1771.623    -894.911
  H     2083.855    1771.299    -896.591
  H     2089.058    1762.651    -894.431
  H     2087.441    1763.085    -895.051
  H     2083.853    1769.527    -896.241
  P     2087.336    1771.043    -898.701
  C     2085.564    1772.902    -899.281
  O     2086.753    1772.260    -899.641
  O     2086.408    1769.786    -899.161
  O     2088.795    1770.777    -898.811
  H     2086.855    1769.229    -899.801
  H     2085.337    1773.661    -900.000
  H     2085.678    1773.348    -898.315
  H     2084.768    1772.188    -899.253

 6  7  8  9  10  11  12  13  14  15  25  28  32  33  34  35 0
 6-311+G(2d,p)
 ****
 36  39  40 0
 6-311+G(2d,p)
 ****
 1  2  3  4  5  16  17  18  19  20  21  22  23  24 0
 3-21G
 ****
 26  27  29  30  31  37  38  41  42  43  44  45  46  47 0
 3-21G
 ****
 48 0
 3-21G
 ****


