%nproc=1
%NoSave
%Mem=1900MB
#P OB98/GEN NMR

erre ene a

0 1
  C     1530.030     973.415    2257.745
  O     1531.243     972.772    2257.346
  P     1531.736     971.345    2257.860
  C     1532.159     970.436    2255.406
  O     1531.509     970.284    2256.657
  C     1531.814     969.293    2254.467
  O     1532.220     968.018    2255.095
  C     1530.290     969.169    2254.171
  O     1530.001     968.887    2252.824
  C     1529.829     968.159    2255.205
  O     1528.577     967.541    2254.889
  C     1531.039     967.233    2255.300
  N     1531.454     962.759    2257.797
  C     1531.249     963.000    2256.457
  N     1531.081     961.921    2255.656
  N     1531.145     964.172    2255.933
  C     1531.209     965.168    2256.838
  C     1531.458     965.080    2258.208
  C     1531.601     963.769    2258.750
  O     1531.808     963.487    2259.925
  N     1531.479     966.335    2258.823
  C     1531.272     967.150    2257.812
  N     1531.117     966.549    2256.604
  O     1531.312     970.904    2259.229
  O     1533.364     971.524    2257.866
  H     1528.557     967.488    2253.891
  H     1533.679     970.922    2258.588
  H     1531.536     961.790    2258.141
  H     1531.242     968.257    2257.940
  H     1531.017     966.434    2254.552
  H     1529.680     968.685    2256.169
  H     1531.040     960.940    2256.022
  H     1529.803     970.132    2254.348
  H     1530.690     962.100    2254.719
  H     1532.412     969.390    2253.514
  H     1533.210     970.473    2255.615
  H     1531.893     971.418    2254.967
  P     1529.990     969.898    2251.541
  C     1531.970     968.560    2250.553
  O     1531.481     969.869    2250.912
  O     1529.949     971.379    2252.204
  O     1528.879     969.687    2250.592
  H     1529.163     971.797    2251.883
  H     1533.065     968.651    2250.392
  H     1531.494     968.228    2249.625
  H     1531.828     967.861    2251.366
  H     1529.947     974.360    2257.250
  H     1530.039     973.567    2258.804
  H     1529.196     972.799    2257.480

 3  4  5  6  7  8  9  10  11  12  23  26  30  31 0
 6-311+G(2d,p)
 ****
 33  35  36  37  38 0
 6-311+G(2d,p)
 ****
 1  2  13  14  15  16  17  18  19  20  21  22  24  25 0
 3-21G
 ****
 27  28  29  32  34  39  40  41  42  43  44  45  46  47  48  49 0
 3-21G
 ****


