%nproc=1
%NoSave
%Mem=1900MB
#P OB98/GEN NMR

erre ene a

0 1
  C     -703.417     177.590     140.642
  O     -703.390     176.725     141.780
  P     -704.655     176.754     142.764
  C     -703.732     178.856     144.043
  O     -704.156     177.488     144.093
  C     -703.900     179.513     145.409
  O     -705.322     179.600     145.766
  C     -703.244     178.747     146.563
  O     -701.843     178.912     146.534
  C     -703.947     179.378     147.754
  O     -703.355     180.628     148.090
  C     -705.385     179.585     147.220
  N     -706.337     178.584     147.695
  C     -707.558     179.102     148.144
  O     -707.816     180.297     148.185
  N     -708.464     178.172     148.588
  C     -708.259     176.813     148.634
  O     -709.115     176.027     149.020
  C     -706.930     176.345     148.180
  C     -706.043     177.238     147.745
  O     -704.760     175.210     143.175
  O     -705.873     177.328     142.128
  H     -703.904     174.783     143.254
  H     -703.633     181.269     147.388
  H     -709.349     178.506     148.906
  H     -706.740     175.288     148.236
  H     -705.076     176.914     147.414
  H     -705.747     180.582     147.506
  H     -703.893     178.742     148.650
  H     -703.497     177.681     146.489
  H     -703.508     180.524     145.351
  H     -704.331     179.389     143.299
  H     -702.692     178.888     143.724
  P     -700.994     177.862     145.667
  C     -700.613     176.120     147.577
  O     -700.052     177.058     146.697
  O     -699.997     178.839     144.883
  O     -701.832     177.004     144.778
  H     -699.601     179.523     145.462
  H     -699.810     175.463     147.926
  H     -701.371     175.505     147.080
  H     -701.047     176.621     148.447
  H     -702.516     177.467     140.079
  H     -703.498     178.606     140.968
  H     -704.258     177.345     140.028

 3  4  5  6  7  8  9  10  11  12  13  24  28  29  30  31  32 0
 6-311+G(2d,p)
 ****
 33  34 0
 6-311+G(2d,p)
 ****
 1  2  14  15  16  17  18  19  20  21  22  23  25  26  27 0
 3-21G
 ****
 35  36  37  38  39  40  41  42  43  44  45 0
 3-21G
 ****


