%nproc=1
%NoSave
%Mem=1900MB
#P OB98/GEN NMR

erre ene a

0 1
  C     -222.376      -9.468     -92.731
  O     -221.080     -10.061     -92.572
  P     -220.480     -10.137     -91.084
  C     -218.198      -9.056     -91.785
  O     -218.890     -10.183     -91.264
  C     -216.729      -9.402     -92.015
  O     -216.600     -10.439     -93.018
  C     -215.888      -8.241     -92.526
  O     -215.613      -7.308     -91.490
  C     -214.670      -8.980     -93.062
  O     -213.777      -9.319     -91.991
  C     -215.308     -10.263     -93.642
  N     -215.413     -10.243     -95.096
  C     -214.660     -11.199     -95.772
  O     -213.925     -12.003     -95.202
  N     -214.764     -11.184     -97.137
  C     -215.507     -10.311     -97.875
  O     -215.571     -10.352     -99.098
  C     -216.243      -9.293     -97.108
  C     -216.163      -9.302     -95.775
  O     -220.881     -11.627     -90.668
  O     -221.005      -9.064     -90.189
  H     -220.845     -12.253     -91.411
  H     -213.672      -8.509     -91.452
  H     -214.236     -11.878     -97.645
  H     -216.823      -8.564     -97.661
  H     -216.697      -8.558     -95.192
  H     -214.711     -11.141     -93.359
  H     -214.104      -8.385     -93.787
  H     -216.410      -7.736     -93.349
  H     -216.316      -9.784     -91.071
  H     -218.264      -8.222     -91.079
  H     -218.684      -8.742     -92.714
  P     -215.846      -5.755     -91.835
  C     -213.483      -4.747     -91.351
  O     -214.815      -4.929     -90.927
  O     -217.269      -5.496     -91.145
  O     -215.806      -5.451     -93.296
  H     -217.336      -5.886     -90.258
  H     -213.052      -3.901     -90.807
  H     -213.427      -4.537     -92.421
  H     -212.900      -5.644     -91.123
  H     -222.651      -9.483     -93.765
  H     -222.350      -8.456     -92.383
  H     -223.094     -10.022     -92.163

 3  4  5  6  7  8  9  10  11  12  13  24  28  29  30  31  32 0
 6-311+G(2d,p)
 ****
 33  34 0
 6-311+G(2d,p)
 ****
 1  2  14  15  16  17  18  19  20  21  22  23  25  26  27 0
 3-21G
 ****
 35  36  37  38  39  40  41  42  43  44  45 0
 3-21G
 ****


