%nproc=1
%NoSave
%Mem=1900MB
#P OB98/GEN NMR

erre ene a

0 1
  C       -6.758     489.270    -142.715
  O       -6.796     488.306    -143.745
  H       -5.991     490.009    -142.955
  H       -6.498     488.790    -141.769
  H       -7.718     489.785    -142.618
  P       -8.020     487.274    -143.797
  C       -6.612     485.244    -143.062
  O       -7.386     485.830    -144.098
  C       -5.859     484.013    -143.577
  O       -6.818     482.947    -143.831
  C       -5.086     484.256    -144.883
  O       -3.938     483.398    -144.866
  C       -6.081     483.783    -145.923
  O       -5.459     483.538    -147.163
  C       -6.678     482.565    -145.212
  N       -7.950     482.144    -145.799
  C       -7.968     480.901    -146.418
  O       -6.975     480.181    -146.513
  N       -9.159     480.519    -146.969
  C      -10.294     481.276    -147.015
  O      -11.327     480.898    -147.552
  C      -10.204     482.604    -146.384
  C       -9.056     482.969    -145.811
  O       -9.151     487.657    -144.691
  O       -8.486     487.137    -142.271
  H       -5.016     484.351    -147.489
  H       -9.444     486.950    -142.229
  H       -9.192     479.615    -147.412
  H      -11.084     483.232    -146.412
  H       -8.960     483.940    -145.337
  H       -5.988     481.712    -145.258
  H       -6.853     484.541    -146.089
  H       -4.784     485.295    -145.017
  H       -5.191     483.655    -142.784
  H       -7.293     484.951    -142.256
  H       -5.900     485.980    -142.677
  P       -2.452     483.964    -144.646
  C       -1.882     484.589    -147.078
  O       -1.604     483.719    -145.984
  O       -1.789     483.472    -143.400
  O       -2.626     485.555    -144.602
  H       -1.920     485.949    -144.058
  H       -1.258     484.329    -147.908
  H       -1.687     485.600    -146.788
  H       -2.910     484.491    -147.360

 6  7  8  9  10  11  12  13  14  15  16  26  31  32  33  34  35 0
 6-311+G(2d,p)
 ****
 36  37 0
 6-311+G(2d,p)
 ****
 1  2  3  4  5  17  18  19  20  21  22  23  24  25 0
 3-21G
 ****
 27  28  29  30  38  39  40  41  42  43  44  45 0
 3-21G
 ****


