%nproc=1
%NoSave
%Mem=1900MB
#P OB98/GEN NMR

erre ene a

0 1
  C      -31.845     154.592    -153.189
  O      -32.298     153.324    -152.755
  P      -33.726     153.179    -152.039
  C      -32.596     151.991    -150.060
  O      -33.484     153.029    -150.463
  C      -31.712     152.463    -148.907
  O      -31.119     153.746    -149.203
  C      -32.458     152.667    -147.596
  O      -32.813     151.438    -146.991
  C      -31.454     153.503    -146.817
  O      -30.434     152.675    -146.240
  C      -30.858     154.391    -147.932
  N      -31.386     155.748    -147.904
  C      -30.761     156.633    -147.016
  O      -29.875     156.236    -146.260
  N      -31.166     157.945    -147.010
  C      -32.180     158.311    -147.729
  N      -32.496     159.634    -147.726
  C      -32.970     157.369    -148.551
  C      -32.506     156.122    -148.608
  O      -34.632     152.156    -152.635
  O      -34.368     154.642    -152.160
  H      -35.274     154.560    -152.519
  H      -29.792     153.281    -145.818
  H      -33.849     157.713    -149.078
  H      -33.006     155.366    -149.208
  H      -29.766     154.433    -147.839
  H      -31.922     154.060    -145.998
  H      -33.364     153.259    -147.778
  H      -30.902     151.732    -148.778
  H      -31.924     160.251    -147.165
  H      -31.970     151.716    -150.914
  H      -33.036     160.067    -148.473
  H      -33.176     151.114    -149.766
  P      -34.373     151.062    -146.968
  C      -34.472     150.554    -144.433
  O      -34.919     151.370    -145.495
  O      -34.368     149.463    -147.047
  O      -35.173     151.659    -148.078
  H      -35.126     149.159    -147.584
  H      -34.639     151.083    -143.487
  H      -33.406     150.322    -144.521
  H      -35.048     149.621    -144.418
  H      -30.880     154.491    -153.639
  H      -31.780     155.254    -152.351
  H      -32.533     154.990    -153.905

 3  4  5  6  7  8  9  10  11  12  13  24  27  28  29  30  32 0
 6-311+G(2d,p)
 ****
 34  35 0
 6-311+G(2d,p)
 ****
 1  2  14  15  16  17  18  19  20  21  22  23  25  26 0
 3-21G
 ****
 31  33  36  37  38  39  40  41  42  43  44  45  46 0
 3-21G
 ****


