%nproc=1
%NoSave
%Mem=1900MB
#P OB98/GEN NMR

erre ene a

0 1
  C      387.430      91.758     -11.157
  O      388.027      92.351     -12.290
  H      386.585      92.373     -10.841
  H      388.156      91.717     -10.340
  H      387.071      90.751     -11.386
  P      389.088      91.467     -13.105
  C      391.212      92.187     -11.808
  O      390.300      91.140     -12.099
  C      392.331      92.220     -12.850
  O      393.308      93.219     -12.451
  C      393.069      90.886     -13.011
  O      393.377      90.693     -14.397
  C      394.351      91.092     -12.226
  O      395.412      90.254     -12.679
  C      394.599      92.580     -12.440
  N      399.079      92.174     -10.169
  C      398.576      91.514     -11.274
  N      399.382      90.601     -11.856
  N      397.381      91.727     -11.762
  C      396.700      92.694     -11.099
  C      397.084      93.414      -9.991
  C      398.399      93.146      -9.444
  O      398.893      93.681      -8.457
  N      396.098      94.278      -9.592
  C      395.118      94.079     -10.455
  N      395.437      93.135     -11.390
  O      389.724      92.517     -14.132
  O      388.522      90.283     -13.817
  H      395.769      90.650     -13.502
  H      389.503      92.261     -15.047
  H      400.000      91.956      -9.826
  H      394.162      94.582     -10.441
  H      395.095      92.790     -13.395
  H      394.173      90.872     -11.166
  H      400.328      90.421     -11.563
  H      392.494      90.033     -12.646
  H      399.047      90.131     -12.691
  H      391.909      92.555     -13.806
  H      391.644      92.016     -10.816
  H      390.679      93.143     -11.804
  P      392.584      89.524     -15.162
  C      394.349      87.646     -14.909
  O      393.056      88.113     -14.555
  O      393.232      89.544     -16.626
  O      391.107      89.734     -15.217
  H      392.600      89.917     -17.265
  H      394.529      86.703     -14.437
  H      395.084      88.353     -14.586
  H      394.408      87.531     -15.971

 6  7  8  9  10  11  12  13  14  15  26  29  33  34 0
 6-311+G(2d,p)
 ****
 36  38  39  40  41 0
 6-311+G(2d,p)
 ****
 1  2  3  4  5  16  17  18  19  20  21  22  23  24  25 0
 3-21G
 ****
 27  28  30  31  32  35  37  42  43  44  45  46  47 0
 3-21G
 ****
 48  49 0
 3-21G
 ****


