%nproc=1
%NoSave
%Mem=1900MB
#P OB98/GEN NMR

erre ene a

0 1
  C      625.903    -436.734      63.486
  O      626.910    -437.754      63.599
  P      626.668    -439.179      62.905
  C      629.133    -439.472      62.075
  O      628.066    -439.973      62.860
  C      630.464    -440.067      62.540
  O      630.825    -439.518      63.832
  C      630.453    -441.568      62.743
  O      630.521    -442.272      61.503
  C      631.674    -441.777      63.615
  O      632.873    -441.819      62.841
  C      631.636    -440.507      64.494
  N      631.169    -440.769      65.857
  C      632.005    -440.390      66.896
  O      633.128    -439.908      66.719
  N      631.531    -440.622      68.163
  C      630.360    -441.251      68.486
  O      629.997    -441.451      69.634
  C      629.550    -441.697      67.341
  C      629.986    -441.455      66.101
  O      626.467    -438.773      61.369
  O      625.489    -439.952      63.406
  H      633.083    -440.896      62.581
  H      625.893    -439.430      60.923
  H      632.111    -440.334      68.929
  H      628.623    -442.219      67.536
  H      629.404    -441.777      65.238
  H      632.649    -440.063      64.571
  H      631.634    -442.706      64.188
  H      629.556    -441.863      63.303
  H      631.245    -439.771      61.809
  H      629.166    -438.377      62.164
  H      628.952    -439.727      61.015
  P      629.173    -442.333      60.625
  C      630.675    -443.174      58.653
  O      629.513    -443.347      59.434
  O      629.176    -440.884      59.960
  O      627.959    -442.644      61.440
  H      630.082    -440.565      59.774
  H      631.499    -442.779      59.249
  H      630.457    -442.507      57.820
  H      630.966    -444.159      58.252
  H      626.226    -435.855      64.004
  H      624.989    -437.086      63.917
  H      625.745    -436.502      62.454

 3  4  5  6  7  8  9  10  11  12  13  23  28  29  30  31  32 0
 6-311+G(2d,p)
 ****
 33  34 0
 6-311+G(2d,p)
 ****
 1  2  14  15  16  17  18  19  20  21  22  24  25  26 0
 3-21G
 ****
 27  35  36  37  38  39  40  41  42  43  44  45 0
 3-21G
 ****


