%nproc=1
%NoSave
%Mem=1900MB
#P OB98/GEN NMR

erre ene a

0 1
  C       14.595     296.326     -93.022
  O       15.178     295.203     -92.393
  H       15.115     297.227     -92.686
  H       13.539     296.408     -92.751
  H       14.695     296.242     -94.108
  P       14.477     293.784     -92.670
  C       15.574     291.421     -92.792
  O       15.713     292.816     -93.014
  C       16.451     290.646     -93.768
  O       16.049     290.910     -95.133
  C       17.934     291.006     -93.713
  O       18.612     290.422     -92.613
  C       18.394     290.421     -95.036
  O       18.470     288.987     -94.931
  C       17.240     290.855     -95.964
  N       17.478     292.151     -96.608
  C       18.271     292.142     -97.763
  O       18.735     291.092     -98.197
  N       18.549     293.338     -98.379
  C       18.062     294.443     -97.903
  N       18.374     295.595     -98.558
  C       17.215     294.495     -96.700
  C       16.964     293.329     -96.109
  O       13.782     293.986     -94.098
  O       13.564     293.283     -91.603
  H       18.776     288.661     -95.797
  H       13.442     293.120     -94.434
  H       16.842     295.442     -96.333
  H       16.347     293.289     -95.219
  H       17.061     290.106     -96.746
  H       19.381     290.770     -95.342
  H       18.086     292.091     -93.733
  H       16.294     289.576     -93.583
  H       19.007     295.531     -99.345
  H       14.522     291.152     -92.935
  H       18.172     296.512     -98.183
  H       15.868     291.173     -91.767
  P       20.159     290.809     -92.412
  C       21.863     290.640     -90.451
  O       20.509     290.536     -90.873
  O       20.150     292.404     -92.514
  O       21.096     290.188     -93.401
  H       20.972     292.732     -92.928
  H       21.927     290.430     -89.404
  H       22.220     291.631     -90.638
  H       22.461     289.937     -90.993

 6  7  8  9  10  11  12  13  14  15  16  26  30  31  32  33  35 0
 6-311+G(2d,p)
 ****
 37  38 0
 6-311+G(2d,p)
 ****
 1  2  3  4  5  17  18  19  20  21  22  23  24  25 0
 3-21G
 ****
 27  28  29  34  36  39  40  41  42  43  44  45  46 0
 3-21G
 ****


