%nproc=1
%NoSave
%Mem=1900MB
#P OB98/GEN NMR

erre ene a

0 1
  C       33.802     728.887     271.599
  O       33.572     729.223     270.245
  H       32.837     728.732     272.091
  H       34.328     729.700     272.109
  H       34.386     727.968     271.667
  P       34.871     729.599     269.380
  C       35.298     727.078     268.870
  O       35.778     728.278     269.468
  C       36.459     726.338     268.197
  O       37.069     727.164     267.178
  C       37.589     725.970     269.148
  O       37.300     724.818     269.923
  C       38.702     725.710     268.155
  O       38.501     724.429     267.517
  C       38.481     726.865     267.147
  N       39.266     728.057     267.463
  C       40.462     728.229     266.752
  O       40.819     727.403     265.913
  N       41.240     729.324     267.030
  C       40.868     730.182     267.927
  N       41.688     731.244     268.173
  C       39.615     730.053     268.689
  C       38.869     728.977     268.409
  O       35.666     730.626     270.317
  O       34.614     730.099     267.991
  H       39.308     724.235     267.007
  H       36.553     730.825     269.922
  H       39.337     730.783     269.437
  H       37.938     728.813     268.932
  H       38.727     726.550     266.126
  H       39.700     725.686     268.608
  H       37.876     726.814     269.781
  H       36.045     725.453     267.701
  H       42.570     731.275     267.680
  H       34.540     727.338     268.128
  H       41.561     731.847     268.975
  H       34.853     726.433     269.629
  P       37.743     724.836     271.471
  C       35.808     726.365     272.285
  O       37.212     726.221     272.091
  O       39.325     725.060     271.395
  O       37.384     723.603     272.243
  H       39.789     724.537     272.067
  H       35.602     727.329     272.701
  H       35.461     725.606     272.955
  H       35.306     726.268     271.345

 6  7  8  9  10  11  12  13  14  15  16  26  30  31  32  33  35 0
 6-311+G(2d,p)
 ****
 37  38 0
 6-311+G(2d,p)
 ****
 1  2  3  4  5  17  18  19  20  21  22  23  24  25 0
 3-21G
 ****
 27  28  29  34  36  39  40  41  42  43  44  45  46 0
 3-21G
 ****


