%nproc=1
%NoSave
%Mem=1900MB
#P OB98/GEN NMR

erre ene a

0 1
  C      501.493    -474.779    -357.089
  O      500.482    -475.208    -356.200
  H      501.783    -475.621    -357.720
  H      502.363    -474.438    -356.525
  H      501.123    -473.969    -357.726
  P      499.837    -474.097    -355.241
  C      497.895    -475.729    -354.691
  O      498.921    -474.876    -354.180
  C      497.958    -477.102    -354.030
  O      499.105    -477.832    -354.554
  C      498.091    -477.060    -352.502
  O      497.361    -478.171    -351.960
  C      499.581    -477.320    -352.283
  O      499.865    -477.814    -350.975
  C      499.840    -478.323    -353.410
  N      504.225    -479.869    -351.495
  C      502.955    -479.915    -350.964
  N      502.820    -480.458    -349.735
  N      501.893    -479.472    -351.592
  C      502.164    -478.979    -352.830
  C      503.379    -478.877    -353.457
  C      504.548    -479.349    -352.743
  O      505.707    -479.314    -353.145
  N      503.241    -478.298    -354.695
  C      501.952    -478.059    -354.807
  N      501.249    -478.456    -353.700
  O      498.778    -473.376    -356.197
  O      500.806    -473.125    -354.645
  H      500.842    -477.925    -350.906
  H      499.178    -472.588    -356.616
  H      505.008    -480.218    -350.956
  H      501.467    -477.603    -355.669
  H      499.464    -479.329    -353.175
  H      500.145    -476.398    -352.437
  H      503.581    -480.863    -349.211
  H      497.749    -476.132    -352.039
  H      501.885    -480.543    -349.348
  H      497.063    -477.670    -354.330
  H      498.039    -475.841    -355.778
  H      496.923    -475.259    -354.506
  P      496.013    -477.861    -351.153
  C      494.327    -479.658    -351.989
  O      495.214    -479.242    -350.965
  O      495.121    -477.082    -352.233
  O      496.201    -477.055    -349.913
  H      494.505    -476.478    -351.781
  H      493.877    -480.589    -351.714
  H      494.870    -479.780    -352.903
  H      493.565    -478.919    -352.123

 6  7  8  9  10  11  12  13  14  15  26  29  33  34 0
 6-311+G(2d,p)
 ****
 36  38  39  40  41 0
 6-311+G(2d,p)
 ****
 1  2  3  4  5  16  17  18  19  20  21  22  23  24  25 0
 3-21G
 ****
 27  28  30  31  32  35  37  42  43  44  45  46  47 0
 3-21G
 ****
 48  49 0
 3-21G
 ****


