%nproc=1
%NoSave
%Mem=1900MB
#P OB98/GEN NMR

erre ene a

0 1
  C      493.591    -393.192     287.134
  O      494.327    -393.967     288.056
  H      492.910    -392.543     287.689
  H      493.004    -393.846     286.485
  H      494.260    -392.569     286.533
  P      495.534    -394.846     287.460
  C      497.165    -393.198     288.638
  O      496.827    -393.891     287.441
  C      498.639    -392.812     288.623
  O      499.469    -393.997     288.588
  C      499.053    -391.966     287.428
  O      498.759    -390.588     287.628
  C      500.558    -392.208     287.424
  O      501.182    -391.422     288.457
  C      500.635    -393.700     287.771
  N      503.448    -396.805     284.918
  C      503.800    -396.066     286.031
  N      505.085    -396.152     286.433
  N      502.964    -395.300     286.684
  C      501.719    -395.299     286.160
  C      501.254    -395.990     285.068
  C      502.179    -396.843     284.353
  O      501.917    -397.540     283.382
  N      499.919    -395.747     284.845
  C      499.586    -394.889     285.789
  N      500.641    -394.581     286.605
  O      495.158    -394.984     285.906
  O      495.729    -396.182     288.089
  H      501.121    -390.490     288.175
  H      495.435    -395.867     285.593
  H      504.138    -397.372     284.444
  H      498.597    -394.469     285.918
  H      501.522    -393.942     288.363
  H      501.026    -391.925     286.482
  H      505.789    -396.686     285.949
  H      498.622    -392.346     286.498
  H      505.359    -395.642     287.270
  H      498.861    -392.291     289.567
  H      496.965    -393.852     289.497
  H      496.539    -392.305     288.724
  P      498.497    -389.690     286.321
  C      496.350    -390.973     285.611
  O      497.697    -390.642     285.300
  O      499.945    -389.581     285.660
  O      497.890    -388.354     286.586
  H      499.994    -388.785     285.090
  H      495.953    -391.607     284.846
  H      495.767    -390.078     285.670
  H      496.316    -391.483     286.551

 6  7  8  9  10  11  12  13  14  15  26  29  33  34 0
 6-311+G(2d,p)
 ****
 36  38  39  40  41 0
 6-311+G(2d,p)
 ****
 1  2  3  4  5  16  17  18  19  20  21  22  23  24  25 0
 3-21G
 ****
 27  28  30  31  32  35  37  42  43  44  45  46  47 0
 3-21G
 ****
 48  49 0
 3-21G
 ****


