%nproc=1
%NoSave
%Mem=1900MB
#P OB98/GEN NMR

erre ene a

0 1
  C       98.887    -898.930     113.333
  O       98.229    -898.660     114.546
  H       98.223    -898.670     112.503
  H       99.116    -900.000     113.277
  H       99.812    -898.360     113.236
  P       99.098    -898.510     115.879
  C       97.603    -897.370     117.656
  O       98.600    -897.190     116.658
  C       97.240    -896.050     118.337
  O       96.523    -895.210     117.412
  C       96.325    -896.250     119.553
  O       97.014    -896.510     120.766
  C       95.583    -894.920     119.606
  O       96.302    -893.950     120.394
  C       95.516    -894.480     118.140
  N       92.003    -892.970     114.751
  C       93.162    -892.320     115.148
  N       93.377    -891.100     114.603
  N       94.002    -892.820     116.017
  C       93.596    -893.990     116.554
  C       92.466    -894.720     116.249
  C       91.575    -894.190     115.235
  O       90.549    -894.740     114.831
  N       92.367    -895.850     117.026
  C       93.386    -895.750     117.852
  N       94.207    -894.690     117.552
  O      100.540    -898.060     115.333
  O       99.212    -899.740     116.721
  H       95.843    -893.100     120.317
  H      101.232    -898.400     115.928
  H       91.415    -892.540     114.057
  H       93.608    -896.450     118.655
  H       95.748    -893.420     118.034
  H       94.605    -895.040     120.081
  H       92.723    -890.630     113.998
  H       95.591    -897.040     119.357
  H       94.111    -890.520     115.008
  H       98.158    -895.520     118.613
  H       98.021    -898.060     118.386
  H       96.712    -897.840     117.219
  P       96.852    -897.900     121.524
  C       99.337    -898.720     121.780
  O       98.087    -898.840     121.133
  O       95.618    -898.590     120.760
  O       96.620    -897.810     122.995
  H       94.798    -898.470     121.268
  H      100.020    -899.436     121.373
  H       99.215    -898.899     122.828
  H       99.723    -897.733     121.630

 6  7  8  9  10  11  12  13  14  15  26  29  33  34 0
 6-311+G(2d,p)
 ****
 36  38  39  40  41 0
 6-311+G(2d,p)
 ****
 1  2  3  4  5  16  17  18  19  20  21  22  23  24  25 0
 3-21G
 ****
 27  28  30  31  32  35  37  42  43  44  45  46  47 0
 3-21G
 ****
 48  49 0
 3-21G
 ****


