%nproc=1
%NoSave
%Mem=1900MB
#P OB98/GEN NMR

erre ene a

0 1
  C     -559.712    -140.635     317.706
  O     -560.560    -141.631     318.263
  P     -561.996    -141.856     317.579
  C     -562.686    -143.869     319.057
  O     -562.942    -142.512     318.699
  C     -563.950    -144.524     319.609
  O     -564.191    -144.013     320.953
  C     -565.215    -144.275     318.784
  O     -565.956    -145.504     318.672
  C     -566.030    -143.327     319.652
  O     -567.419    -143.416     319.377
  C     -565.617    -143.802     321.047
  N     -568.901    -142.806     324.755
  C     -568.727    -143.964     324.015
  N     -569.597    -144.973     324.260
  N     -567.801    -144.107     323.105
  C     -566.986    -143.031     322.990
  C     -567.049    -141.842     323.677
  C     -568.122    -141.666     324.633
  O     -568.388    -140.636     325.248
  N     -566.033    -140.992     323.294
  C     -565.363    -141.666     322.378
  N     -565.929    -142.893     322.124
  O     -561.720    -143.061     316.561
  O     -562.557    -140.670     316.866
  H     -567.710    -144.313     319.627
  H     -561.975    -142.797     315.651
  H     -569.649    -142.741     325.428
  H     -564.490    -141.310     321.851
  H     -566.094    -144.765     321.275
  H     -565.700    -142.300     319.461
  H     -570.321    -144.940     324.964
  H     -565.027    -143.867     317.782
  H     -569.477    -145.838     323.742
  H     -563.762    -145.602     319.713
  H     -561.893    -143.894     319.813
  H     -562.343    -144.405     318.160
  P     -566.764    -145.717     317.293
  C     -566.118    -148.238     317.395
  O     -567.138    -147.274     317.244
  O     -565.612    -145.567     316.173
  O     -567.883    -144.751     317.082
  H     -566.004    -145.296     315.322
  H     -565.155    -147.785     317.688
  H     -565.976    -148.756     316.442
  H     -566.422    -148.964     318.147
  H     -558.797    -140.596     318.259
  H     -560.199    -139.684     317.755
  H     -559.502    -140.876     316.685

 3  4  5  6  7  8  9  10  11  12  23  26  30  31  33  0
 6-311+G(2d,p)
 ****
 35  36  37  38 0
 6-311+G(2d,p)
 ****
 1  2  13  14  15  16  17  18  19  20  21  22  24  25  27  28  29 0
 3-21G
 ****
 32  34  39  40  41  42  43  44  45  46  47  48  49 0
 3-21G
 ****


