%nproc=1
%NoSave
%Mem=1900MB
#P OB98/GEN NMR

erre ene a

0 1
  C      538.955      64.866    1238.218
  O      539.897      64.551    1239.220
  H      537.968      64.519    1238.537
  H      539.215      64.360    1237.280
  H      538.919      65.946    1238.060
  P      541.437      64.877    1238.902
  C      541.440      67.164    1240.132
  O      541.581      66.472    1238.900
  C      542.781      67.779    1240.532
  O      543.218      68.708    1239.506
  C      542.741      68.582    1241.819
  O      542.766      67.766    1242.977
  C      543.993      69.431    1241.672
  O      545.161      68.723    1242.116
  C      544.051      69.694    1240.158
  N      543.638      71.056    1239.834
  C      544.531      71.789    1239.069
  O      545.609      71.341    1238.679
  N      544.169      73.088    1238.797
  C      543.045      73.706    1239.246
  O      542.808      74.891    1239.016
  C      542.140      72.888    1240.069
  C      542.471      71.621    1240.327
  O      541.583      64.478    1237.362
  O      542.422      64.156    1239.764
  H      542.083      63.645    1237.282
  H      545.220      67.924    1241.553
  H      544.813      73.625    1238.244
  H      541.238      73.353    1240.445
  H      541.825      70.996    1240.933
  H      545.065      69.544    1239.776
  H      543.921      70.335    1242.265
  H      541.864      69.249    1241.824
  H      543.526      66.971    1240.606
  H      541.128      66.467    1240.918
  H      540.671      67.935    1240.025
  P      542.028      68.307    1244.298
  C      539.848      66.897    1243.864
  O      540.458      68.173    1244.000
  O      542.333      69.881    1244.187
  O      542.513      67.656    1245.556
  H      542.462      70.158    1243.256
  H      538.803      67.020    1243.669
  H      539.979      66.341    1244.769
  H      540.302      66.369    1243.052

 6  7  8  9  10  11  12  13  14  15  16  27  31  32  33  34  35 0
 6-311+G(2d,p)
 ****
 36  37 0
 6-311+G(2d,p)
 ****
 1  2  3  4  5  17  18  19  20  21  22  23  24  25 0
 3-21G
 ****
 26  28  29  30  38  39  40  41  42  43  44  45 0
 3-21G
 ****


