%nproc=1
%NoSave
%Mem=1900MB
#P OB98/GEN NMR

erre ene a

0 1
  C     1048.496    -892.440    -291.345
  O     1048.650    -893.020    -292.608
  P     1047.536    -894.000    -293.195
  C     1046.466    -892.360    -294.886
  O     1046.265    -893.120    -293.692
  C     1045.344    -892.470    -295.902
  O     1045.173    -893.840    -296.335
  C     1043.961    -892.010    -295.369
  O     1043.300    -891.420    -296.510
  C     1043.301    -893.320    -294.935
  O     1041.888    -893.190    -294.799
  C     1043.797    -894.270    -296.019
  N     1043.751    -895.660    -295.585
  C     1042.509    -896.320    -295.733
  O     1041.536    -895.690    -296.169
  N     1042.421    -897.620    -295.323
  C     1043.488    -898.200    -294.781
  N     1043.298    -899.500    -294.425
  C     1044.734    -897.510    -294.542
  C     1044.831    -896.290    -294.978
  O     1047.192    -895.170    -292.325
  O     1048.169    -894.510    -294.590
  H     1041.726    -892.580    -294.030
  H     1047.839    -895.420    -294.763
  H     1045.556    -898.020    -294.080
  H     1045.703    -895.700    -294.859
  H     1043.219    -894.140    -296.949
  H     1043.728    -893.590    -293.945
  H     1044.016    -891.260    -294.580
  H     1045.636    -891.880    -296.763
  H     1042.393    -899.930    -294.548
  H     1047.418    -892.690    -295.338
  H     1043.974    -900.000    -293.853
  H     1046.629    -891.280    -294.603
  P     1042.659    -889.970    -296.516
  C     1044.178    -889.090    -298.380
  O     1043.831    -888.970    -297.030
  O     1042.026    -889.550    -295.245
  O     1041.629    -889.960    -297.773
  H     1040.993    -889.220    -297.626
  H     1044.804    -888.230    -298.695
  H     1043.310    -889.120    -299.070
  H     1044.758    -889.990    -298.584
  H     1049.342    -891.820    -291.132
  H     1048.423    -893.210    -290.606
  H     1047.606    -891.846    -291.331

 3  4  5  6  7  8  9  10  11  12  13  23  27  28  29  30  32 0
 6-311+G(2d,p)
 ****
 34  35 0
 6-311+G(2d,p)
 ****
 1  2  14  15  16  17  18  19  20  21  22  24  25  26 0
 3-21G
 ****
 31  33  36  37  38  39  40  41  42  43  44  45  46 0
 3-21G
 ****


