%nproc=1
%NoSave
%Mem=1900MB
#P OB98/GEN NMR

erre ene a

0 1
  C      185.470     212.496     100.097
  O      185.310     211.161      99.670
  P      184.479     210.114     100.555
  C      185.905     208.086     101.247
  O      185.538     209.430     101.553
  C      186.632     208.033      99.903
  O      187.662     209.055      99.824
  C      187.376     206.730      99.650
  O      186.603     205.559      99.498
  C      188.276     207.122      98.487
  O      187.572     207.080      97.247
  C      188.636     208.584      98.858
  N      190.001     208.700      99.364
  C      190.700     209.841      98.977
  O      190.225     210.720      98.255
  N      191.991     209.932      99.424
  C      192.652     208.991     100.164
  O      193.823     209.121     100.493
  C      191.869     207.802     100.527
  C      190.600     207.712     100.117
  O      183.641     209.151      99.783
  O      183.643     211.056     101.547
  H      187.273     206.159      97.108
  H      184.184     211.630     102.120
  H      192.518     210.744      99.146
  H      192.359     207.045     101.124
  H      190.001     206.839     100.373
  H      188.537     209.234      97.978
  H      189.137     206.450      98.395
  H      188.033     206.539     100.512
  H      185.907     208.245      99.114
  H      185.003     207.471     101.188
  H      186.533     207.690     102.056
  P      187.122     204.099      99.909
  C      187.994     202.644      97.948
  O      188.274     203.667      98.880
  O      186.079     203.085     100.242
  O      187.974     204.424     101.235
  H      187.930     203.658     101.837
  H      188.899     202.446      97.361
  H      187.196     202.953      97.268
  H      187.710     201.721      98.465
  H      186.050     213.034      99.377
  H      185.972     212.511     101.042
  H      184.509     212.956     100.196

 3  4  5  6  7  8  9  10  11  12  13  23  28  29  30  31  32 0
 6-311+G(2d,p)
 ****
 33  34 0
 6-311+G(2d,p)
 ****
 1  2  14  15  16  17  18  19  20  21  22  24  25  26  27 0
 3-21G
 ****
 35  36  37  38  39  40  41  42  43  44  45 0
 3-21G
 ****


