%nproc=1
%NoSave
%Mem=1900MB
#P OB98/GEN NMR

erre ene a

0 1
  C     -364.957     140.116    -604.718
  O     -364.694     141.432    -604.270
  P     -365.324     141.985    -602.897
  C     -367.334     143.499    -603.505
  O     -366.882     142.178    -603.210
  C     -367.353     143.716    -605.012
  O     -368.115     142.657    -605.641
  C     -368.009     145.020    -605.457
  O     -367.145     146.118    -605.247
  C     -368.325     144.699    -606.916
  O     -367.147     144.851    -607.728
  C     -368.722     143.209    -606.844
  N     -370.168     143.007    -606.835
  C     -370.873     143.599    -607.880
  O     -370.303     144.255    -608.755
  N     -372.237     143.420    -607.940
  C     -372.839     142.731    -607.018
  N     -374.175     142.527    -607.157
  C     -372.128     142.130    -605.867
  C     -370.813     142.300    -605.845
  O     -364.642     143.190    -602.338
  O     -365.317     140.722    -601.917
  H     -366.432     144.350    -607.289
  H     -364.476     140.629    -601.404
  H     -372.675     141.564    -605.122
  H     -370.220     141.875    -605.043
  H     -368.288     142.662    -607.685
  H     -369.109     145.340    -607.340
  H     -368.940     145.185    -604.903
  H     -366.317     143.654    -605.382
  H     -374.582     142.798    -608.047
  H     -366.641     144.209    -603.050
  H     -374.655     141.778    -606.665
  H     -368.333     143.642    -603.069
  P     -367.811     147.557    -605.022
  C     -367.168     149.260    -606.872
  O     -368.020     148.186    -606.479
  O     -366.636     148.421    -604.364
  O     -369.040     147.535    -604.152
  H     -366.751     148.491    -603.406
  H     -367.271     149.398    -607.947
  H     -366.124     149.028    -606.637
  H     -367.475     150.177    -606.360
  H     -364.448     139.946    -605.644
  H     -366.010     139.992    -604.862
  H     -364.612     139.415    -603.987

 3  4  5  6  7  8  9  10  11  12  13  23  27  28  29  30  32 0
 6-311+G(2d,p)
 ****
 34  35 0
 6-311+G(2d,p)
 ****
 1  2  14  15  16  17  18  19  20  21  22  24  25  26 0
 3-21G
 ****
 31  33  36  37  38  39  40  41  42  43  44  45  46 0
 3-21G
 ****


