%nproc=1
%NoSave
%Mem=1900MB
#P OB98/GEN NMR

erre ene a

0 1
  C       61.270      29.682     -40.446
  O       61.634      28.375     -40.831
  P       62.880      27.625     -40.160
  C       64.433      28.080     -42.165
  O       64.208      28.293     -40.776
  C       65.881      28.433     -42.529
  O       66.133      29.821     -42.144
  C       66.915      27.546     -41.805
  O       67.868      26.925     -42.668
  C       67.495      28.489     -40.761
  O       68.764      28.097     -40.275
  C       67.415      29.838     -41.485
  N       67.559      30.971     -40.574
  C       68.129      32.132     -41.090
  O       68.505      32.264     -42.251
  N       68.322      33.152     -40.198
  C       68.116      33.090     -38.852
  O       68.404      34.010     -38.098
  C       67.549      31.824     -38.360
  C       67.277      30.846     -39.227
  O       62.849      26.136     -40.241
  O       62.885      28.197     -38.664
  H       68.696      27.173     -39.972
  H       62.988      29.163     -38.595
  H       68.735      33.999     -40.559
  H       67.384      31.743     -37.295
  H       66.860      29.903     -38.892
  H       68.178      29.920     -42.261
  H       66.812      28.497     -39.902
  H       66.425      26.705     -41.301
  H       65.982      28.350     -43.615
  H       63.755      28.719     -42.734
  H       64.202      27.041     -42.425
  P       68.414      25.428     -42.508
  C       70.485      26.301     -41.198
  O       69.407      25.389     -41.253
  O       68.951      24.811     -43.757
  O       67.134      24.619     -41.985
  H       67.193      23.690     -42.279
  H       71.297      25.847     -40.621
  H       70.161      27.211     -40.688
  H       70.854      26.550     -42.197
  H       60.418      29.996     -41.011
  H       62.086      30.349     -40.631
  H       61.030      29.693     -39.403

 3  4  5  6  7  8  9  10  11  12  13  23  28  29  30  31  32 0
 6-311+G(2d,p)
 ****
 33  34 0
 6-311+G(2d,p)
 ****
 1  2  14  15  16  17  18  19  20  21  22  24  25  26  27 0
 3-21G
 ****
 35  36  37  38  39  40  41  42  43  44  45 0
 3-21G
 ****


