%nproc=1
%NoSave
%Mem=1900MB
#P OB98/GEN NMR

erre ene a

0 1
  C     -441.629    -100.597     260.700
  O     -441.294     -99.397     261.359
  H     -442.507    -100.410     260.075
  H     -441.880    -101.376     261.422
  H     -440.805    -100.924     260.061
  P     -440.155     -99.424     262.494
  C     -441.044    -100.301     264.735
  O     -440.547    -100.661     263.450
  C     -441.433    -101.538     265.550
  O     -440.261    -102.358     265.779
  C     -442.044    -101.210     266.918
  O     -443.218    -102.001     267.115
  C     -440.955    -101.618     267.903
  O     -441.490    -101.911     269.191
  C     -440.309    -102.788     267.150
  N     -438.984    -103.121     267.661
  C     -438.936    -103.927     268.803
  O     -439.978    -104.286     269.351
  N     -437.712    -104.274     269.323
  C     -436.630    -103.811     268.776
  N     -435.449    -104.186     269.344
  C     -436.634    -102.927     267.596
  C     -437.831    -102.629     267.088
  O     -439.947     -98.127     263.203
  O     -438.846     -99.955     261.737
  H     -440.817    -102.426     269.697
  H     -438.040     -99.703     262.257
  H     -435.703    -102.564     267.182
  H     -437.927    -101.990     266.219
  H     -440.935    -103.687     267.209
  H     -440.235    -100.797     268.011
  H     -442.308    -100.158     267.034
  H     -442.120    -102.143     264.943
  H     -435.493    -104.802     270.153
  H     -441.909     -99.641     264.606
  H     -434.545    -103.889     269.012
  H     -440.257     -99.758     265.269
  P     -444.584    -101.398     266.521
  C     -445.742    -100.716     268.738
  O     -445.122    -100.276     267.538
  O     -445.623    -102.602     266.687
  O     -444.470    -100.958     265.098
  H     -445.742    -103.066     265.842
  H     -446.048     -99.867     269.313
  H     -445.047    -101.300     269.305
  H     -446.598    -101.313     268.499

 6  7  8  9  10  11  12  13  14  15  16  26  30  31  32  33  35 0
 6-311+G(2d,p)
 ****
 37  38 0
 6-311+G(2d,p)
 ****
 1  2  3  4  5  17  18  19  20  21  22  23  24  25 0
 3-21G
 ****
 27  28  29  34  36  39  40  41  42  43  44  45  46 0
 3-21G
 ****


