%nproc=1
%NoSave
%Mem=1900MB
#P OB98/GEN NMR

erre ene a

0 1
  C      -48.654     204.005    -129.031
  O      -48.023     204.076    -130.315
  P      -48.823     204.824    -131.490
  C      -48.184     206.760    -133.138
  O      -47.754     205.789    -132.193
  C      -47.277     207.986    -133.078
  O      -47.395     208.650    -131.795
  C      -45.793     207.671    -133.232
  O      -45.468     207.367    -134.580
  C      -45.168     208.953    -132.696
  O      -45.184     209.979    -133.703
  C      -46.140     209.325    -131.552
  N      -45.612     209.012    -130.231
  C      -45.058     210.082    -129.531
  O      -44.985     211.222    -129.990
  N      -44.568     209.791    -128.284
  C      -44.552     208.556    -127.700
  O      -44.109     208.359    -126.575
  C      -45.106     207.460    -128.508
  C      -45.603     207.732    -129.717
  O      -49.756     205.810    -130.647
  O      -49.546     203.882    -132.395
  H      -49.329     206.147    -129.842
  H      -46.121     210.115    -133.942
  H      -44.177     210.555    -127.755
  H      -45.085     206.462    -128.082
  H      -46.011     206.934    -130.330
  H      -46.363     210.401    -131.581
  H      -44.130     208.813    -132.386
  H      -45.523     206.828    -132.585
  H      -47.598     208.687    -133.860
  H      -49.212     207.063    -132.917
  H      -48.179     206.310    -134.135
  P      -44.773     205.943    -134.853
  C      -43.824     204.844    -137.029
  O      -44.134     206.024    -136.320
  O      -46.058     205.003    -135.039
  O      -43.847     205.510    -133.767
  H      -46.744     205.403    -135.597
  H      -43.739     205.086    -138.092
  H      -44.601     204.088    -136.904
  H      -42.867     204.449    -136.680
  H      -48.016     203.484    -128.348
  H      -49.584     203.483    -129.119
  H      -48.834     204.995    -128.667

 3  4  5  6  7  8  9  10  11  12  13  24  28  29  30  31  32 0
 6-311+G(2d,p)
 ****
 33  34 0
 6-311+G(2d,p)
 ****
 1  2  14  15  16  17  18  19  20  21  22  23  25  26  27 0
 3-21G
 ****
 35  36  37  38  39  40  41  42  43  44  45 0
 3-21G
 ****


