%nproc=1
%NoSave
%Mem=1900MB
#P OB98/GEN NMR

erre ene a

0 1
  C      -20.175     125.265      47.389
  O      -18.844     125.267      46.906
  H      -20.810     125.798      46.676
  H      -20.220     125.778      48.354
  H      -20.544     124.240      47.494
  P      -17.801     124.336      47.689
  C      -17.132     126.562      48.908
  O      -17.313     125.154      48.987
  C      -16.945     127.147      50.306
  O      -18.153     127.015      51.082
  C      -15.898     126.433      51.146
  O      -14.580     126.706      50.722
  C      -16.218     126.988      52.528
  O      -15.586     128.255      52.749
  C      -17.757     127.146      52.469
  N      -18.431     126.191      53.330
  C      -18.540     126.569      54.676
  O      -18.099     127.658      55.050
  N      -19.109     125.691      55.561
  C      -19.509     124.527      55.149
  N      -20.036     123.691      56.085
  C      -19.411     124.088      53.741
  C      -18.865     124.962      52.893
  O      -16.520     124.373      46.733
  O      -18.296     122.963      47.997
  H      -15.889     128.843      52.026
  H      -16.261     125.268      46.457
  H      -19.771     123.113      53.446
  H      -18.754     124.721      51.841
  H      -18.052     128.158      52.783
  H      -15.874     126.318      53.321
  H      -16.095     125.351      51.158
  H      -16.711     128.216      50.202
  H      -20.033     124.010      57.046
  H      -17.989     127.033      48.411
  H      -20.305     122.736      55.896
  H      -16.247     126.751      48.293
  P      -13.425     125.600      50.825
  C      -12.956     126.703      53.108
  O      -13.039     125.480      52.384
  O      -12.258     125.808      49.919
  O      -14.212     124.228      50.572
  H      -14.925     124.040      51.209
  H      -12.695     126.498      54.125
  H      -13.902     127.201      53.076
  H      -12.209     127.329      52.667

 6  7  8  9  10  11  12  13  14  15  16  26  30  31  32  33  35 0
 6-311+G(2d,p)
 ****
 37  38 0
 6-311+G(2d,p)
 ****
 1  2  3  4  5  17  18  19  20  21  22  23  24  25 0
 3-21G
 ****
 27  28  29  34  36  39  40  41  42  43  44  45  46 0
 3-21G
 ****


