%nproc=1
%NoSave
%Mem=1900MB
#P OB98/GEN NMR

erre ene a

0 1
  C      328.465     195.095    -183.004
  O      328.207     193.849    -182.340
  P      327.047     192.842    -182.794
  C      326.535     191.923    -180.438
  O      326.972     191.620    -181.758
  C      327.060     190.908    -179.421
  O      328.399     191.253    -179.008
  C      326.254     190.812    -178.133
  O      325.050     190.091    -178.335
  C      327.254     190.133    -177.205
  O      327.263     188.709    -177.403
  C      328.588     190.755    -177.667
  N      329.056     191.805    -176.770
  C      329.777     191.392    -175.647
  O      329.942     190.191    -175.421
  N      330.271     192.347    -174.796
  C      330.003     193.598    -175.004
  N      330.526     194.501    -174.132
  C      329.171     194.070    -176.126
  C      328.736     193.130    -176.963
  O      327.133     192.421    -184.226
  O      325.681     193.637    -182.529
  H      327.491     188.562    -178.340
  H      325.015     193.348    -183.183
  H      328.948     195.119    -176.248
  H      328.128     193.389    -177.817
  H      329.363     189.984    -177.740
  H      327.037     190.309    -176.148
  H      326.036     191.820    -177.755
  H      327.105     189.929    -179.917
  H      331.100     194.147    -173.378
  H      325.438     191.910    -180.427
  H      330.383     195.498    -174.204
  H      326.875     192.933    -180.177
  P      323.747     190.461    -177.480
  C      323.507     188.388    -175.984
  O      323.009     189.091    -177.108
  O      322.870     191.518    -178.059
  O      324.346     190.930    -176.068
  H      323.755     191.609    -175.684
  H      322.719     187.737    -175.601
  H      323.816     189.079    -175.194
  H      324.361     187.776    -176.289
  H      329.283     195.592    -182.525
  H      327.593     195.713    -182.954
  H      328.712     194.909    -184.028

 3  4  5  6  7  8  9  10  11  12  13  23  27  28  29  30  32 0
 6-311+G(2d,p)
 ****
 34  35 0
 6-311+G(2d,p)
 ****
 1  2  14  15  16  17  18  19  20  21  22  24  25  26 0
 3-21G
 ****
 31  33  36  37  38  39  40  41  42  43  44  45  46 0
 3-21G
 ****


