%nproc=1
%NoSave
%Mem=1900MB
#P OB98/GEN NMR

erre ene a

0 1
  C     -898.000    -634.877    -891.030
  O     -897.050    -635.758    -890.440
  P     -895.730    -636.088    -891.320
  C     -895.380    -637.502    -893.510
  O     -896.150    -637.296    -892.300
  C     -895.300    -638.972    -893.850
  O     -896.580    -639.497    -894.200
  C     -894.410    -639.286    -895.030
  O     -893.010    -639.234    -894.670
  C     -894.870    -640.657    -895.420
  O     -894.190    -641.685    -894.640
  C     -896.380    -640.613    -895.070
  N     -897.240    -640.560    -896.250
  C     -897.480    -641.815    -896.840
  O     -896.970    -642.852    -896.400
  N     -898.280    -641.853    -897.980
  C     -898.790    -640.732    -898.440
  N     -899.570    -640.817    -899.570
  C     -898.510    -639.415    -897.840
  C     -897.750    -639.401    -896.750
  O     -894.750    -636.784    -890.260
  O     -895.110    -634.895    -891.980
  H     -894.470    -642.536    -895.040
  H     -893.800    -636.661    -890.490
  H     -898.950    -638.516    -898.300
  H     -897.490    -638.479    -896.240
  H     -896.660    -641.487    -894.480
  H     -894.700    -640.879    -896.490
  H     -894.570    -638.563    -895.870
  H     -894.950    -639.531    -892.960
  H     -899.690    -641.755    -899.950
  H     -894.370    -637.094    -893.360
  H     -900.000    -640.014    -900.000
  H     -895.850    -636.911    -894.330
  P     -891.960    -638.774    -895.780
  C     -891.580    -639.425    -898.230
  O     -892.150    -639.827    -896.960
  O     -890.580    -639.238    -895.080
  O     -891.950    -637.321    -896.160
  H     -889.800    -638.931    -895.650
  H     -891.610    -640.339    -898.880
  H     -890.550    -639.107    -898.100
  H     -892.170    -638.609    -898.630
  H     -898.821    -634.737    -890.359
  H     -898.356    -635.299    -891.946
  H     -897.536    -633.933    -891.228

 3  4  5  6  7  8  9  10  11  12  13  21  23  27  28  29  30  32 0
 6-311+G(2d,p)
 ****
 34  35 0
 6-311+G(2d,p)
 ****
 1  2  14  15  16  17  18  19  20  22  24  25  26 0
 3-21G
 ****
 31  33  36  37  38  39  40  41  42  43  44  45  46 0
 3-21G
 ****


