%nproc=1
%NoSave
%Mem=1900MB
#P OB98/GEN NMR

erre ene a

0 1
  C     -131.979     202.612     -16.613
  O     -133.025     203.361     -16.035
  H     -131.763     201.757     -15.963
  H     -131.081     203.227     -16.695
  H     -132.260     202.235     -17.600
  P     -133.759     204.474     -16.923
  C     -131.820     206.070     -16.322
  O     -132.648     205.546     -17.353
  C     -130.635     206.838     -16.913
  O     -129.667     205.889     -17.431
  C     -131.067     207.725     -18.092
  O     -130.228     208.862     -18.243
  C     -130.878     206.801     -19.286
  O     -130.717     207.508     -20.518
  C     -129.639     206.008     -18.863
  N     -126.710     201.999     -20.039
  C     -126.343     203.253     -19.587
  N     -125.008     203.462     -19.428
  N     -127.187     204.217     -19.344
  C     -128.476     203.888     -19.614
  C     -128.967     202.692     -20.080
  C     -128.023     201.618     -20.317
  O     -128.294     200.501     -20.736
  N     -130.327     202.740     -20.240
  C     -130.662     203.958     -19.881
  N     -129.574     204.692     -19.465
  O     -134.635     205.288     -15.857
  O     -134.610     203.948     -18.046
  H     -131.492     208.089     -20.623
  H     -135.371     205.747     -16.304
  H     -126.022     201.285     -20.181
  H     -131.670     204.361     -19.886
  H     -128.725     206.546     -19.140
  H     -131.770     206.182     -19.386
  H     -124.325     202.819     -19.789
  H     -132.100     208.054     -18.011
  H     -124.704     204.441     -19.410
  H     -130.129     207.408     -16.123
  H     -131.472     205.217     -15.729
  H     -132.403     206.709     -15.657
  P     -130.835     210.315     -17.932
  C     -129.745     211.490     -20.046
  O     -130.887     211.175     -19.277
  O     -129.696     211.025     -17.067
  O     -132.148     210.287     -17.220
  H     -130.018     211.212     -16.165
  H     -130.036     212.072     -20.895
  H     -129.277     210.586     -20.376
  H     -129.056     212.050     -19.449

 6  7  8  9  10  11  12  13  14  15  26  29  33  34 0
 6-311+G(2d,p)
 ****
 36  38  39  40  41 0
 6-311+G(2d,p)
 ****
 1  2  3  4  5  16  17  18  19  20  21  22  23  24  25 0
 3-21G
 ****
 27  28  30  31  32  35  37  42  43  44  45  46  47 0
 3-21G
 ****
 48  49 0
 3-21G
 ****


