%nproc=1
%NoSave
%Mem=1900MB
#P OB98/GEN NMR

erre ene a

0 1
  C     -446.979    -442.276     412.305
  O     -445.628    -442.264     412.768
  P     -444.864    -443.656     412.934
  C     -442.424    -442.611     412.979
  O     -443.422    -443.414     413.590
  C     -441.250    -442.446     413.962
  O     -441.561    -441.455     414.963
  C     -440.890    -443.741     414.693
  O     -439.990    -444.539     413.946
  C     -440.300    -443.205     415.988
  O     -438.949    -442.755     415.770
  C     -441.241    -442.008     416.270
  N     -442.493    -442.263     417.008
  C     -442.866    -441.430     418.067
  O     -442.214    -440.457     418.440
  N     -444.056    -441.728     418.680
  C     -444.969    -442.654     418.263
  O     -446.046    -442.838     418.813
  C     -444.601    -443.407     417.049
  C     -443.395    -443.195     416.504
  O     -444.541    -444.100     411.440
  O     -445.646    -444.699     413.672
  H     -438.582    -442.537     416.640
  H     -445.020    -444.911     411.207
  H     -444.309    -441.184     419.490
  H     -445.309    -444.119     416.660
  H     -443.114    -443.742     415.603
  H     -440.704    -441.228     416.831
  H     -440.247    -443.981     416.741
  H     -441.801    -444.294     414.940
  H     -440.385    -442.083     413.389
  H     -442.838    -441.637     412.715
  H     -442.091    -443.089     412.053
  P     -440.020    -446.130     414.107
  C     -439.164    -446.762     411.770
  O     -438.859    -446.687     413.149
  O     -441.363    -446.781     413.945
  O     -439.411    -446.380     415.576
  H     -440.139    -446.475     416.235
  H     -438.252    -446.998     411.222
  H     -439.546    -445.800     411.418
  H     -439.896    -447.548     411.587
  H     -447.346    -441.272     412.248
  H     -447.584    -442.839     412.985
  H     -447.020    -442.726     411.335

 3  4  5  6  7  8  9  10  11  12  13  23  28  29  30  31  32 0
 6-311+G(2d,p)
 ****
 33  34 0
 6-311+G(2d,p)
 ****
 1  2  14  15  16  17  18  19  20  21  22  24  25  26  27 0
 3-21G
 ****
 35  36  37  38  39  40  41  42  43  44  45 0
 3-21G
 ****


