%nproc=1
%NoSave
%Mem=1900MB
#P OB98/GEN NMR

erre ene a

0 1
  C     -536.114     -72.307    -291.054
  O     -535.792     -70.928    -291.057
  H     -535.240     -72.873    -291.381
  H     -536.936     -72.496    -291.747
  H     -536.390     -72.642    -290.049
  P     -536.790     -69.895    -290.346
  C     -535.011     -69.432    -288.537
  O     -536.342     -69.830    -288.800
  C     -534.734     -69.411    -287.020
  O     -534.957     -70.745    -286.489
  C     -533.296     -69.009    -286.652
  O     -533.348     -68.340    -285.388
  C     -532.624     -70.363    -286.514
  O     -531.409     -70.268    -285.798
  C     -533.742     -71.165    -285.850
  N     -533.535     -72.611    -285.963
  C     -532.738     -73.198    -284.979
  O     -532.188     -72.552    -284.085
  N     -532.526     -74.556    -285.095
  C     -532.996     -75.340    -286.110
  O     -532.756     -76.540    -286.180
  C     -533.794     -74.661    -287.132
  C     -534.031     -73.345    -287.013
  O     -538.248     -70.139    -290.574
  O     -536.331     -68.463    -290.899
  H     -531.591     -70.095    -284.849
  H     -537.105     -67.851    -290.930
  H     -531.962     -74.995    -284.395
  H     -534.171     -75.260    -287.962
  H     -534.625     -72.817    -287.756
  H     -533.813     -70.920    -284.786
  H     -532.385     -70.777    -287.504
  H     -532.822     -68.370    -287.400
  H     -535.460     -68.751    -286.550
  H     -534.862     -68.432    -288.949
  H     -534.309     -70.122    -289.021
  P     -533.355     -66.741    -285.257
  C     -535.536     -66.688    -283.895
  O     -534.869     -66.243    -285.076
  O     -532.608     -66.028    -286.346
  O     -532.689     -66.441    -283.829
  H     -532.258     -65.571    -283.838
  H     -536.532     -66.298    -283.880
  H     -535.004     -66.342    -283.033
  H     -535.572     -67.757    -283.887

 6  7  8  9  10  11  12  13  14  15  16  26  31  32  33  34  35 0
 6-311+G(2d,p)
 ****
 36  37 0
 6-311+G(2d,p)
 ****
 1  2  3  4  5  17  18  19  20  21  22  23  24  25 0
 3-21G
 ****
 27  28  29  30  38  39  40  41  42  43  44  45 0
 3-21G
 ****


