%nproc=1
%NoSave
%Mem=1900MB
#P OB98/GEN NMR

erre ene a

0 1
  C      -55.167     254.175    -228.155
  O      -56.235     254.874    -227.549
  P      -56.032     256.373    -227.016
  C      -54.668     255.401    -225.055
  O      -55.761     256.231    -225.439
  C      -54.729     255.079    -223.561
  O      -54.461     256.258    -222.778
  C      -56.083     254.566    -223.091
  O      -56.258     253.210    -223.457
  C      -55.985     254.812    -221.592
  O      -55.272     253.753    -220.935
  C      -55.181     256.129    -221.533
  N      -56.027     257.286    -221.274
  C      -56.649     257.322    -220.020
  O      -56.495     256.396    -219.222
  N      -57.471     258.382    -219.723
  C      -57.670     259.309    -220.607
  N      -58.504     260.326    -220.257
  C      -57.059     259.292    -221.951
  C      -56.259     258.262    -222.215
  O      -57.103     257.337    -227.398
  O      -54.588     256.768    -227.590
  H      -55.293     253.961    -219.980
  H      -54.623     256.947    -228.561
  H      -57.266     260.081    -222.659
  H      -55.772     258.169    -223.178
  H      -54.421     256.079    -220.741
  H      -56.971     254.876    -221.121
  H      -56.882     255.187    -223.513
  H      -53.948     254.339    -223.341
  H      -58.926     260.284    -219.338
  H      -53.738     255.934    -225.271
  H      -58.756     261.077    -220.880
  H      -54.685     254.482    -225.650
  P      -57.680     252.703    -223.984
  C      -58.752     252.706    -221.653
  O      -58.401     251.928    -222.780
  O      -57.659     251.975    -225.287
  O      -58.535     254.052    -224.105
  H      -59.028     254.041    -224.947
  H      -59.506     252.167    -221.076
  H      -59.159     253.675    -221.954
  H      -57.869     252.859    -221.027
  H      -55.497     253.198    -228.442
  H      -54.358     254.089    -227.460
  H      -54.838     254.709    -229.022

 3  4  5  6  7  8  9  10  11  12  13  23  27  28  29  30  32 0
 6-311+G(2d,p)
 ****
 34  35 0
 6-311+G(2d,p)
 ****
 1  2  14  15  16  17  18  19  20  21  22  24  25  26 0
 3-21G
 ****
 31  33  36  37  38  39  40  41  42  43  44  45  46 0
 3-21G
 ****


