%nproc=1
%NoSave
%Mem=1900MB
#P OB98/GEN NMR

erre ene a

0 1
  C     -101.847    -653.380     134.650
  O     -101.736    -654.470     133.734
  P     -100.327    -654.623     132.956
  C      -99.677    -656.868     134.106
  O      -99.979    -656.189     132.900
  C      -99.895    -658.373     133.943
  O     -101.292    -658.701     133.921
  C      -99.336    -658.942     132.656
  O      -97.928    -659.160     132.731
  C     -100.079    -660.278     132.572
  O      -99.399    -661.257     133.390
  C     -101.447    -659.930     133.159
  N     -105.397    -661.986     130.735
  C     -104.582    -662.519     131.714
  N     -104.878    -663.774     132.135
  N     -103.565    -661.881     132.249
  C     -103.410    -660.638     131.754
  C     -104.141    -659.993     130.789
  C     -105.247    -660.716     130.180
  O     -105.980    -660.298     129.286
  N     -103.679    -658.719     130.557
  C     -102.690    -658.580     131.409
  N     -102.477    -659.719     132.151
  O      -99.273    -654.049     134.016
  O     -100.276    -653.887     131.657
  H      -98.524    -661.409     132.993
  H      -98.494    -653.697     133.548
  H     -106.162    -662.526     130.363
  H     -102.100    -657.674     131.538
  H     -101.804    -660.694     133.858
  H     -100.110    -660.685     131.552
  H     -105.691    -664.290     131.818
  H      -99.600    -658.323     131.786
  H     -104.323    -664.166     132.878
  H      -99.428    -658.874     134.815
  H     -100.325    -656.496     134.906
  H      -98.646    -656.640     134.388
  P      -97.048    -658.736     131.455
  C      -95.748    -656.936     132.817
  O      -95.682    -658.133     132.057
  O      -97.823    -657.453     130.890
  O      -96.902    -659.802     130.430
  H      -97.686    -657.381     129.922
  H      -96.594    -656.962     133.508
  H      -95.855    -656.084     132.140
  H      -94.830    -656.846     133.388
  H     -102.819    -653.387     135.097
  H     -101.702    -652.458     134.127
  H     -101.103    -653.478     135.413

 3  4  5  6  7  8  9  10  11  12  23  26  30  31  33  0
 6-311+G(2d,p)
 ****
 35  36  37  38 0
 6-311+G(2d,p)
 ****
 1  2  13  14  15  16  17  18  19  20  21  22  24  25  27  28  29 0
 3-21G
 ****
 32  34  39  40  41  42  43  44  45  46  47  48  49 0
 3-21G
 ****


