%nproc=1
%NoSave
%Mem=1900MB
#P OB98/GEN NMR

erre ene a

0 1
  C      128.747      57.873    -189.331
  O      128.041      56.650    -189.246
  P      128.348      55.583    -188.093
  C      130.391      54.179    -187.396
  O      129.855      55.081    -188.352
  C      131.898      54.381    -187.220
  O      132.136      55.490    -186.306
  C      132.650      53.161    -186.672
  O      133.948      53.180    -187.277
  C      132.752      53.479    -185.187
  O      133.767      52.732    -184.532
  C      132.972      55.003    -185.234
  N      132.663      55.636    -183.959
  C      133.682      55.654    -183.002
  O      134.753      55.077    -183.226
  N      133.455      56.267    -181.795
  C      132.270      56.733    -181.531
  N      132.099      57.335    -180.322
  C      131.131      56.623    -182.462
  C      131.399      56.081    -183.649
  O      127.339      54.492    -187.952
  O      128.507      56.479    -186.778
  H      133.847      53.059    -183.611
  H      127.617      56.758    -186.441
  H      130.150      56.973    -182.177
  H      130.627      55.961    -184.399
  H      134.016      55.232    -185.499
  H      131.800      53.250    -184.695
  H      132.145      52.213    -186.863
  H      132.316      54.670    -188.195
  H      132.914      57.403    -179.723
  H      130.217      53.161    -187.753
  H      131.244      57.796    -180.052
  H      129.872      54.292    -186.441
  P      134.679      51.823    -187.717
  C      136.455      50.295    -186.673
  O      135.454      51.267    -186.428
  O      135.518      51.926    -188.954
  O      133.487      50.768    -187.907
  H      133.811      49.997    -188.415
  H      137.091      50.206    -185.786
  H      137.077      50.582    -187.528
  H      135.981      49.328    -186.874
  H      128.388      58.434    -190.168
  H      129.791      57.674    -189.456
  H      128.596      58.435    -188.433

 3  4  5  6  7  8  9  10  11  12  13  23  27  28  29  30  32 0
 6-311+G(2d,p)
 ****
 34  35 0
 6-311+G(2d,p)
 ****
 1  2  14  15  16  17  18  19  20  21  22  24  25  26 0
 3-21G
 ****
 31  33  36  37  38  39  40  41  42  43  44  45  46 0
 3-21G
 ****


