%nproc=1
%NoSave
%Mem=1900MB
#P OB98/GEN NMR

erre ene a

0 1
  C      127.840    -395.040      70.953
  O      128.789    -395.657      70.110
  H      127.156    -395.810      71.334
  H      127.254    -394.313      70.387
  H      128.329    -394.552      71.798
  P      129.993    -394.779      69.520
  C      128.797    -393.686      67.513
  O      129.345    -393.494      68.809
  C      128.592    -392.341      66.806
  O      128.237    -392.595      65.419
  C      127.487    -391.481      67.422
  O      127.879    -390.106      67.371
  C      126.302    -391.717      66.514
  O      125.384    -390.624      66.523
  C      126.984    -391.930      65.157
  N      124.454    -391.868      60.778
  C      125.277    -390.906      61.352
  N      125.426    -389.751      60.664
  N      125.881    -391.065      62.494
  C      125.659    -392.280      63.056
  C      124.879    -393.314      62.593
  C      124.193    -393.114      61.333
  O      123.447    -393.919      60.785
  N      124.890    -394.375      63.465
  C      125.672    -393.985      64.451
  N      126.155    -392.720      64.258
  O      130.970    -395.539      68.671
  O      130.701    -394.160      70.810
  H      125.907    -389.805      66.410
  H      131.546    -394.616      71.004
  H      124.010    -391.686      59.900
  H      125.915    -394.576      65.321
  H      127.201    -390.977      64.649
  H      125.763    -392.619      66.830
  H      125.002    -389.574      59.764
  H      127.280    -391.759      68.460
  H      126.037    -389.037      61.048
  H      129.548    -391.806      66.790
  H      127.835    -394.195      67.616
  H      129.475    -394.320      66.924
  P      128.810    -389.511      68.531
  C      127.116    -387.823      69.500
  O      127.873    -389.001      69.742
  O      129.842    -388.526      68.087
  O      129.491    -390.823      69.146
  H      130.399    -390.598      69.433
  H      126.538    -387.585      70.369
  H      126.461    -387.984      68.669
  H      127.779    -387.012      69.280

 6  7  8  9  10  11  12  13  14  15  26  29  33  34 0
 6-311+G(2d,p)
 ****
 36  38  39  40  41 0
 6-311+G(2d,p)
 ****
 1  2  3  4  5  16  17  18  19  20  21  22  23  24  25 0
 3-21G
 ****
 27  28  30  31  32  35  37  42  43  44  45  46  47 0
 3-21G
 ****
 48  49 0
 3-21G
 ****


