%nproc=1
%NoSave
%Mem=1900MB
#P OB98/GEN NMR

erre ene a

0 1
  C     -190.590      89.558      56.655
  O     -191.553      88.558      56.930
  P     -192.738      88.355      55.871
  C     -194.715      88.333      57.572
  O     -194.059      89.004      56.502
  C     -196.228      88.349      57.338
  O     -196.686      89.697      57.099
  C     -196.665      87.547      56.120
  O     -196.697      86.157      56.397
  C     -198.039      88.140      55.837
  O     -199.043      87.534      56.667
  C     -197.831      89.619      56.222
  N     -197.683      90.488      55.059
  C     -198.783      91.287      54.755
  O     -199.831      91.259      55.403
  N     -198.651      92.093      53.657
  C     -197.577      92.138      52.817
  O     -197.540      92.840      51.815
  C     -196.455      91.249      53.172
  C     -196.561      90.475      54.256
  O     -193.029      86.780      55.916
  O     -192.422      88.821      54.488
  H     -199.862      88.054      56.535
  H     -193.270      86.461      55.025
  H     -199.426      92.698      53.434
  H     -195.585      91.260      52.528
  H     -195.754      89.804      54.526
  H     -198.686      89.978      56.813
  H     -198.347      87.990      54.797
  H     -196.001      87.761      55.273
  H     -196.723      87.974      58.244
  H     -194.481      88.837      58.513
  H     -194.347      87.305      57.629
  P     -196.214      85.169      55.227
  C     -198.076      85.520      53.426
  O     -196.772      85.824      53.874
  O     -197.155      83.901      55.499
  O     -194.750      84.885      55.273
  H     -198.021      84.159      55.855
  H     -198.768      85.393      54.262
  H     -198.049      84.602      52.833
  H     -198.430      86.341      52.794
  H     -189.865      89.581      57.441
  H     -191.074      90.510      56.588
  H     -190.104      89.339      55.727

 3  4  5  6  7  8  9  10  11  12  13  23  28  29  30  31  32 0
 6-311+G(2d,p)
 ****
 33  34 0
 6-311+G(2d,p)
 ****
 1  2  14  15  16  17  18  19  20  21  22  24  25  26 0
 3-21G
 ****
 27  35  36  37  38  39  40  41  42  43  44  45 0
 3-21G
 ****


