%nproc=1
%NoSave
%Mem=1900MB
#P OB98/GEN NMR

erre ene a

0 1
  C      163.879    -202.686    -213.038
  O      164.021    -202.236    -214.383
  P      163.057    -202.635    -215.590
  C      163.318    -200.491    -217.093
  O      163.554    -201.882    -216.908
  C      164.451    -199.652    -216.484
  O      165.649    -199.822    -217.303
  C      164.128    -198.155    -216.461
  O      164.518    -197.506    -215.256
  C      164.754    -197.655    -217.751
  O      164.982    -196.253    -217.763
  C      165.994    -198.538    -217.867
  N      169.448    -197.189    -221.376
  C      169.237    -196.672    -220.113
  N      170.036    -195.654    -219.733
  N      168.312    -197.107    -219.297
  C      167.534    -198.075    -219.829
  C      167.634    -198.657    -221.073
  C      168.694    -198.203    -221.948
  O      168.938    -198.639    -223.068
  N      166.668    -199.615    -221.255
  C      165.976    -199.600    -220.134
  N      166.467    -198.684    -219.233
  O      161.594    -202.588    -215.299
  O      163.441    -204.172    -215.893
  H      164.202    -195.822    -217.364
  H      162.619    -204.603    -216.204
  H      170.192    -196.830    -221.952
  H      165.124    -200.233    -219.916
  H      166.839    -198.139    -217.299
  H      164.053    -197.871    -218.566
  H      170.682    -195.191    -220.351
  H      163.045    -197.989    -216.500
  H      169.733    -195.137    -218.904
  H      164.670    -200.033    -215.482
  H      162.375    -200.276    -216.576
  H      163.176    -200.258    -218.149
  P      163.600    -196.757    -214.184
  C      164.495    -197.974    -212.110
  O      164.371    -196.733    -212.781
  O      162.384    -197.761    -213.905
  O      163.082    -195.428    -214.625
  H      161.543    -197.337    -214.163
  H      164.788    -197.785    -211.075
  H      165.266    -198.580    -212.593
  H      163.545    -198.515    -212.115
  H      164.659    -202.267    -212.437
  H      163.943    -203.754    -213.011
  H      162.929    -202.375    -212.656

 3  4  5  6  7  8  9  10  11  12  23  26  30  31 0
 6-311+G(2d,p)
 ****
 33  35  36  37  38 0
 6-311+G(2d,p)
 ****
 1  2  13  14  15  16  17  18  19  20  21  22  24  25 0
 3-21G
 ****
 27  28  29  32  34  39  40  41  42  43  44  45  46  47  48  49 0
 3-21G
 ****


