%nproc=1
%NoSave
%Mem=1900MB
#P OB98/GEN NMR

erre ene a

0 1
  C     -333.722     895.963     308.599
  O     -333.000     897.158     308.820
  H     -333.138     895.131     308.983
  H     -333.876     895.818     307.537
  H     -334.675     895.988     309.123
  P     -333.701     898.563     308.501
  C     -332.176     899.600     310.297
  O     -332.693     899.714     308.976
  C     -331.198     900.754     310.565
  O     -331.876     902.038     310.405
  C     -330.615     900.756     311.981
  O     -329.622     899.765     312.152
  C     -330.119     902.207     312.073
  O     -328.831     902.335     311.443
  C     -331.204     902.974     311.278
  N     -332.159     903.648     312.153
  C     -331.724     904.845     312.726
  O     -330.620     905.353     312.482
  N     -332.598     905.435     313.606
  C     -333.758     904.878     314.079
  O     -334.362     905.314     315.032
  C     -334.175     903.626     313.426
  C     -333.358     903.069     312.519
  O     -335.110     898.699     308.989
  O     -333.629     898.663     306.905
  H     -334.502     898.426     306.527
  H     -328.799     903.242     311.079
  H     -332.275     906.293     314.049
  H     -335.129     903.182     313.707
  H     -333.655     902.139     312.015
  H     -330.736     903.723     310.637
  H     -330.024     902.517     313.097
  H     -331.430     900.622     312.705
  H     -330.381     900.707     309.805
  H     -331.642     898.652     310.382
  H     -333.012     899.629     311.016
  P     -329.722     898.725     313.353
  C     -327.969     897.408     312.006
  O     -328.431     897.755     313.292
  O     -331.030     898.010     313.484
  O     -329.444     899.601     314.646
  H     -330.164     899.429     315.308
  H     -327.116     896.767     312.094
  H     -327.695     898.295     311.474
  H     -328.745     896.898     311.474

 6  7  8  9  10  11  12  13  14  15  16  27  31  32  33  34  35 0
 6-311+G(2d,p)
 ****
 36  37 0
 6-311+G(2d,p)
 ****
 1  2  3  4  5  17  18  19  20  21  22  23  24  25 0
 3-21G
 ****
 26  28  29  30  38  39  40  41  42  43  44  45 0
 3-21G
 ****


