%nproc=1
%NoSave
%Mem=1900MB
#P OB98/GEN NMR

erre ene a

0 1
  C       42.037    -154.310    -141.082
  O       40.719    -153.827    -141.350
  P       40.212    -153.717    -142.863
  C       40.894    -151.222    -142.831
  O       39.915    -152.182    -143.213
  C       40.496    -149.835    -143.341
  O       40.414    -149.805    -144.787
  C       39.114    -149.403    -142.868
  O       38.975    -149.111    -141.494
  C       38.765    -148.300    -143.853
  O       39.342    -147.052    -143.471
  C       39.419    -148.826    -145.153
  N       38.443    -149.385    -146.089
  C       38.711    -149.191    -147.439
  O       39.678    -148.553    -147.852
  N       37.802    -149.727    -148.311
  C       36.661    -150.392    -147.970
  O       35.869    -150.833    -148.793
  C       36.419    -150.545    -146.527
  C       37.305    -150.043    -145.665
  O       39.144    -154.679    -143.261
  O       41.554    -154.003    -143.704
  H       40.312    -147.157    -143.503
  H       41.314    -154.569    -144.463
  H       37.985    -149.604    -149.295
  H       35.520    -151.062    -146.219
  H       37.147    -150.145    -144.598
  H       39.949    -148.016    -145.669
  H       37.684    -148.145    -143.919
  H       38.418    -150.231    -143.064
  H       41.264    -149.119    -143.041
  H       41.868    -151.509    -143.232
  H       40.993    -151.231    -141.740
  P       38.945    -150.237    -140.354
  C       36.457    -150.887    -140.684
  O       37.442    -150.373    -139.815
  O       40.037    -150.213    -139.337
  O       39.097    -151.577    -141.231
  H       39.596    -152.233    -140.708
  H       35.497    -150.892    -140.159
  H       36.701    -151.911    -140.977
  H       36.365    -150.256    -141.572
  H       42.206    -154.317    -140.026
  H       42.754    -153.671    -141.554
  H       42.138    -155.304    -141.466

 3  4  5  6  7  8  9  10  11  12  13  23  28  29  30  31  32 0
 6-311+G(2d,p)
 ****
 33  34 0
 6-311+G(2d,p)
 ****
 1  2  14  15  16  17  18  19  20  21  22  24  25  26  27 0
 3-21G
 ****
 35  36  37  38  39  40  41  42  43  44  45 0
 3-21G
 ****


