%nproc=1
%NoSave
%Mem=1900MB
#P OB98/GEN NMR

erre ene a

0 1
  C     -235.761     384.461     656.845
  O     -236.754     383.604     657.381
  P     -237.114     383.631     658.946
  C     -235.154     382.057     659.731
  O     -236.547     382.296     659.604
  C     -234.936     380.650     660.303
  O     -235.568     380.537     661.600
  C     -235.536     379.582     659.396
  O     -234.550     379.059     658.514
  C     -236.057     378.556     660.385
  O     -234.989     377.709     660.844
  C     -236.546     379.458     661.540
  N     -237.890     380.069     661.431
  C     -239.020     379.301     661.703
  O     -238.972     378.123     662.041
  N     -240.229     379.921     661.511
  C     -240.396     381.226     661.139
  O     -241.451     381.708     660.743
  C     -239.186     382.053     661.147
  C     -238.002     381.444     661.266
  O     -238.695     383.401     658.943
  O     -236.716     384.874     659.668
  H     -235.328     377.187     661.609
  H     -239.166     384.253     659.050
  H     -241.044     379.336     661.559
  H     -239.284     383.129     661.000
  H     -237.086     382.032     661.234
  H     -236.509     378.933     662.503
  H     -236.794     377.901     659.920
  H     -236.388     379.981     658.830
  H     -233.857     380.487     660.437
  H     -234.710     382.811     660.385
  H     -234.675     382.149     658.751
  P     -234.676     379.319     656.936
  C     -236.534     377.662     656.317
  O     -235.141     377.910     656.325
  O     -233.484     379.942     656.292
  O     -235.977     380.244     656.830
  H     -235.711     381.191     656.749
  H     -236.725     376.769     655.720
  H     -237.081     378.502     655.885
  H     -236.880     377.474     657.340
  H     -235.672     384.290     655.792
  H     -234.823     384.260     657.319
  H     -236.038     385.480     657.019

 3  4  5  6  7  8  9  10  11  12  13  23  28  29  30  31  32 0
 6-311+G(2d,p)
 ****
 33  34 0
 6-311+G(2d,p)
 ****
 1  2  14  15  16  17  18  19  20  21  22  24  25  26  27 0
 3-21G
 ****
 35  36  37  38  39  40  41  42  43  44  45 0
 3-21G
 ****


