%nproc=1
%NoSave
%Mem=1900MB
#P OB98/GEN NMR

erre ene a

0 1
  C       60.324    -125.738     -45.765
  O       61.630    -126.266     -45.747
  P       62.939    -125.410     -46.064
  C       64.207    -124.764     -48.262
  O       62.971    -125.080     -47.633
  C       63.980    -124.066     -49.611
  O       63.121    -122.914     -49.398
  C       65.299    -123.536     -50.205
  O       65.429    -123.738     -51.608
  C       65.347    -122.098     -49.697
  O       66.213    -121.257     -50.448
  C       63.869    -121.717     -49.707
  N       63.239    -116.723     -48.954
  C       63.400    -117.411     -50.143
  N       63.595    -116.654     -51.248
  N       63.401    -118.718     -50.229
  C       63.309    -119.342     -49.028
  C       63.144    -118.764     -47.788
  C       63.112    -117.323     -47.711
  O       63.089    -116.670     -46.665
  N       63.159    -119.706     -46.784
  C       63.362    -120.846     -47.414
  N       63.492    -120.671     -48.776
  O       64.210    -125.859     -45.414
  O       62.547    -123.972     -45.428
  H       65.879    -121.237     -51.367
  H       63.375    -123.578     -45.079
  H       63.330    -115.712     -48.942
  H       63.454    -121.816     -46.937
  H       63.552    -121.371     -50.694
  H       65.738    -122.124     -48.671
  H       63.746    -115.656     -51.187
  H       66.154    -124.085     -49.792
  H       63.959    -117.126     -52.071
  H       63.460    -124.754     -50.288
  H       64.728    -125.719     -48.415
  H       64.825    -124.145     -47.607
  P       66.451    -124.681     -52.395
  C       68.899    -124.442     -53.139
  O       67.941    -124.154     -52.133
  O       66.222    -124.347     -53.942
  O       66.265    -126.144     -52.151
  H       66.269    -125.168     -54.470
  H       69.904    -124.284     -52.728
  H       68.752    -123.768     -53.988
  H       68.812    -125.481     -53.475
  H       59.624    -126.509     -45.520
  H       60.107    -125.357     -46.741
  H       60.249    -124.947     -45.048

 3  4  5  6  7  8  9  10  11  12  23  26  30  31 0
 6-311+G(2d,p)
 ****
 33  35  36  37  38 0
 6-311+G(2d,p)
 ****
 1  2  13  14  15  16  17  18  19  20  21  22  24  25 0
 3-21G
 ****
 27  28  29  32  34  39  40  41  42  43  44  45  46  47  48  49 0
 3-21G
 ****


