%nproc=1
%NoSave
%Mem=1900MB
#P OB98/GEN NMR

erre ene a

0 1
  C      346.816    -366.556     148.590
  O      346.930    -365.205     148.991
  H      346.770    -366.594     147.498
  H      345.902    -366.996     148.999
  H      347.688    -367.124     148.924
  P      346.954    -364.934     150.574
  C      345.148    -364.760     152.427
  O      345.419    -364.815     151.033
  C      343.653    -364.933     152.689
  O      343.148    -366.104     152.010
  C      343.286    -365.085     154.161
  O      343.181    -363.817     154.794
  C      341.948    -365.804     154.058
  O      340.882    -364.878     153.756
  C      342.188    -366.761     152.881
  N      341.048    -371.681     153.057
  C      340.275    -370.597     152.684
  N      338.997    -370.861     152.334
  N      340.709    -369.367     152.670
  C      341.989    -369.245     153.104
  C      342.855    -370.237     153.499
  C      342.380    -371.603     153.455
  O      343.040    -372.612     153.696
  N      344.077    -369.718     153.846
  C      343.934    -368.413     153.694
  N      342.680    -368.074     153.251
  O      347.487    -363.427     150.687
  O      347.800    -365.865     151.372
  H      340.622    -364.414     154.569
  H      348.073    -363.360     151.466
  H      340.674    -372.612     153.020
  H      344.706    -367.677     153.886
  H      341.275    -366.922     152.298
  H      341.676    -366.288     155.001
  H      338.532    -371.717     152.597
  H      344.007    -365.729     154.684
  H      338.410    -370.057     152.130
  H      343.141    -364.063     152.253
  H      345.474    -363.790     152.812
  H      345.707    -365.555     152.934
  P      343.275    -363.759     156.390
  C      341.654    -364.200     158.371
  O      341.936    -364.407     156.994
  O      343.111    -362.195     156.698
  O      344.554    -364.280     156.956
  H      343.973    -361.812     156.943
  H      340.736    -364.688     158.624
  H      341.565    -363.151     158.563
  H      342.448    -364.605     158.963

 6  7  8  9  10  11  12  13  14  15  26  29  33  34 0
 6-311+G(2d,p)
 ****
 36  38  39  40  41 0
 6-311+G(2d,p)
 ****
 1  2  3  4  5  16  17  18  19  20  21  22  23  24  25 0
 3-21G
 ****
 27  28  30  31  32  35  37  42  43  44  45  46  47 0
 3-21G
 ****
 48  49 0
 3-21G
 ****


