%nproc=1
%NoSave
%Mem=1900MB
#P OB98/GEN NMR

erre ene a

0 1
  C      -37.870      59.224     244.082
  O      -37.410      60.071     245.135
  P      -38.480      60.625     246.193
  C      -38.357      58.738     247.950
  O      -39.145      59.373     246.948
  C      -39.197      58.480     249.215
  O      -40.303      57.602     248.874
  C      -38.449      57.783     250.357
  O      -37.756      58.592     251.306
  C      -39.600      57.121     251.110
  O      -40.209      58.073     252.002
  C      -40.589      56.751     250.006
  N      -40.935      51.913     251.646
  C      -41.082      53.098     252.282
  N      -40.975      54.341     251.772
  C      -40.692      54.297     250.461
  C      -40.515      53.165     249.678
  C      -40.642      51.925     250.323
  N      -40.480      50.721     249.680
  N      -40.228      53.514     248.374
  C      -40.216      54.835     248.377
  N      -40.503      55.354     249.608
  O      -39.438      61.650     245.680
  O      -37.543      61.250     247.337
  H      -39.481      58.494     252.501
  H      -37.962      62.062     247.682
  H      -41.320      53.038     253.342
  H      -40.000      55.450     247.512
  H      -41.627      56.935     250.299
  H      -39.270      56.283     251.728
  H      -37.771      57.015     249.965
  H      -39.615      59.433     249.569
  H      -37.503      59.372     248.199
  H      -40.546      49.876     250.226
  H      -40.207      50.708     248.707
  H      -37.959      57.818     247.520
  P      -36.283      58.211     251.810
  C      -35.195      60.436     250.970
  O      -35.277      59.033     250.871
  O      -36.001      56.749     251.889
  O      -36.183      58.984     253.207
  H      -36.158      59.954     253.128
  H      -34.317      60.779     250.415
  H      -35.096      60.750     252.014
  H      -36.087      60.894     250.532
  H      -37.043      58.940     243.465
  H      -38.592      59.749     243.492
  H      -38.320      58.348     244.500

 3  4  5  6  7  8  9  10  11  12  22  25  29  30  31  32 0
 6-311+G(2d,p)
 ****
 33  36  37 0
 6-311+G(2d,p)
 ****
 1  2  13  14  15  16  17  18  19  20  21  23  24  26 0
 3-21G
 ****
 27  28  34  35  38  39  40  41  42  43  44  45  46  47  48 0
 3-21G
 ****


