%nproc=1
%NoSave
%Mem=1900MB
#P OB98/GEN NMR

erre ene a

0 1
  C       95.282    -541.306     -69.455
  O       95.890    -542.431     -70.056
  H       95.513    -540.419     -70.053
  H       95.684    -541.164     -68.448
  H       94.199    -541.432     -69.414
  P       95.602    -543.859     -69.386
  C       93.740    -544.722     -70.974
  O       94.060    -544.202     -69.693
  C       92.772    -545.897     -70.857
  O       91.487    -545.399     -70.378
  C       92.513    -546.641     -72.174
  O       92.334    -548.034     -71.870
  C       91.174    -546.089     -72.626
  O       90.497    -546.947     -73.539
  C       90.478    -545.920     -71.274
  N       85.448    -545.839     -71.205
  C       86.325    -546.888     -71.049
  N       85.787    -548.112     -70.842
  N       87.629    -546.754     -71.094
  C       88.032    -545.472     -71.274
  C       87.263    -544.346     -71.445
  C       85.820    -544.515     -71.424
  O       84.991    -543.622     -71.573
  N       88.053    -543.233     -71.635
  C       89.289    -543.687     -71.564
  N       89.326    -545.040     -71.351
  O       95.612    -543.514     -67.820
  O       96.576    -544.936     -69.730
  H       89.747    -546.445     -73.919
  H       96.499    -543.669     -67.447
  H       84.455    -545.997     -71.180
  H       90.183    -543.088     -71.669
  H       90.127    -546.876     -70.872
  H       91.317    -545.106     -73.113
  H       84.797    -548.285     -70.754
  H       93.302    -546.530     -72.921
  H       86.418    -548.892     -70.680
  H       93.152    -546.584     -70.087
  H       94.662    -545.068     -71.459
  H       93.292    -543.930     -71.584
  P       93.007    -549.113     -72.849
  C       94.861    -549.836     -71.173
  O       94.547    -549.263     -72.437
  O       93.095    -548.324     -74.244
  O       92.239    -550.385     -72.989
  H       93.062    -548.956     -74.983
  H       95.923    -549.866     -71.049
  H       94.468    -550.830     -71.125
  H       94.428    -549.243     -70.395

 6  7  8  9  10  11  12  13  14  15  26  29  33  34 0
 6-311+G(2d,p)
 ****
 36  38  39  40  41 0
 6-311+G(2d,p)
 ****
 1  2  3  4  5  16  17  18  19  20  21  22  23  24  25 0
 3-21G
 ****
 27  28  30  31  32  35  37  42  43  44  45  46  47 0
 3-21G
 ****
 48  49 0
 3-21G
 ****


