%nproc=1
%NoSave
%Mem=1900MB
#P OB98/GEN NMR

erre ene a

0 1
  C      122.831    -175.940     126.389
  O      122.956    -174.543     126.605
  H      123.630    -176.263     125.715
  H      121.872    -176.177     125.922
  H      122.926    -176.480     127.334
  P      121.803    -173.799     127.438
  C      119.312    -173.250     126.991
  O      120.471    -173.966     126.568
  C      118.473    -172.847     125.784
  O      117.794    -173.997     125.237
  C      117.380    -171.847     126.122
  O      117.914    -170.548     126.293
  C      116.453    -172.019     124.935
  O      116.936    -171.303     123.790
  C      116.532    -173.547     124.700
  N      115.419    -174.269     125.313
  C      114.171    -174.113     124.688
  O      114.060    -173.405     123.685
  N      113.084    -174.748     125.238
  C      113.228    -175.488     126.296
  N      112.112    -176.077     126.797
  C      114.527    -175.685     126.973
  C      115.564    -175.053     126.434
  O      122.083    -172.394     127.877
  O      121.544    -174.779     128.679
  H      116.880    -170.357     124.024
  H      122.131    -174.544     129.423
  H      114.600    -176.309     127.848
  H      116.559    -175.150     126.871
  H      116.545    -173.776     123.626
  H      115.448    -171.655     125.151
  H      116.840    -172.166     127.021
  H      119.145    -172.453     125.008
  H      111.238    -175.910     126.303
  H      119.665    -172.355     127.521
  H      112.115    -176.746     127.555
  H      118.717    -173.857     127.681
  P      117.658    -169.731     127.652
  C      115.558    -168.907     128.902
  O      116.073    -169.470     127.693
  O      118.513    -168.523     127.844
  O      117.871    -170.840     128.789
  H      118.823    -171.058     128.913
  H      114.499    -168.779     128.813
  H      116.019    -167.957     129.078
  H      115.771    -169.563     129.720

 6  7  8  9  10  11  12  13  14  15  16  26  30  31  32  33  35 0
 6-311+G(2d,p)
 ****
 37  38 0
 6-311+G(2d,p)
 ****
 1  2  3  4  5  17  18  19  20  21  22  23  24  25 0
 3-21G
 ****
 27  28  29  34  36  39  40  41  42  43  44  45  46 0
 3-21G
 ****


