%nproc=1
%NoSave
%Mem=1900MB
#P OB98/GEN NMR

erre ene a

0 1
  C     -122.182    -432.286    -227.514
  O     -121.377    -433.452    -227.484
  P     -121.645    -434.527    -226.320
  C     -119.340    -434.151    -225.183
  O     -120.753    -434.112    -225.049
  C     -118.657    -433.602    -223.928
  O     -117.218    -433.528    -224.147
  C     -119.132    -432.196    -223.537
  O     -119.114    -432.073    -222.101
  C     -118.043    -431.294    -224.082
  O     -118.006    -430.047    -223.391
  C     -116.812    -432.168    -223.875
  N     -112.327    -429.834    -224.043
  C     -113.047    -430.276    -222.950
  N     -112.536    -429.976    -221.735
  N     -114.158    -430.952    -223.039
  C     -114.551    -431.178    -224.321
  C     -113.914    -430.804    -225.486
  C     -112.688    -430.037    -225.370
  O     -112.020    -429.593    -226.298
  N     -114.596    -431.235    -226.593
  C     -115.668    -431.836    -226.105
  N     -115.706    -431.796    -224.733
  O     -120.916    -435.839    -226.880
  O     -123.087    -434.788    -226.040
  H     -118.122    -430.243    -222.437
  H     -121.586    -436.480    -227.195
  H     -111.477    -429.306    -223.923
  H     -116.455    -432.293    -226.695
  H     -116.457    -432.133    -222.833
  H     -118.227    -431.090    -225.142
  H     -111.721    -429.395    -221.595
  H     -120.129    -431.936    -223.910
  H     -113.066    -430.250    -220.912
  H     -118.816    -434.309    -223.103
  H     -119.046    -433.550    -226.041
  H     -119.018    -435.187    -225.364
  P     -120.138    -431.003    -221.478
  C     -118.132    -429.766    -220.376
  O     -119.283    -429.684    -221.192
  O     -120.436    -431.588    -220.015
  O     -121.391    -430.813    -222.277
  H     -121.304    -431.284    -219.695
  H     -117.254    -429.506    -220.978
  H     -117.996    -430.763    -219.952
  H     -118.228    -429.045    -219.556
  H     -121.888    -431.671    -228.339
  H     -122.057    -431.743    -226.601
  H     -123.209    -432.564    -227.625

 3  4  5  6  7  8  9  10  11  12  23  26  30  31 0
 6-311+G(2d,p)
 ****
 33  35  36  37  38 0
 6-311+G(2d,p)
 ****
 1  2  13  14  15  16  17  18  19  20  21  22  24  25 0
 3-21G
 ****
 27  28  29  32  34  39  40  41  42  43  44  45  46  47  48  49 0
 3-21G
 ****


