%nproc=1
%NoSave
%Mem=1900MB
#P OB98/GEN NMR

erre ene a

0 1
  C      -33.227      30.967     -29.673
  O      -32.511      31.236     -28.461
  P      -32.158      32.779     -28.173
  C      -33.945      33.186     -26.332
  O      -32.562      33.104     -26.651
  C      -34.171      33.608     -24.878
  O      -33.615      32.601     -23.998
  C      -33.530      34.946     -24.491
  O      -34.403      35.624     -23.575
  C      -32.293      34.531     -23.715
  O      -31.838      35.557     -22.838
  C      -32.814      33.278     -23.016
  N      -29.432      32.487     -19.341
  C      -30.442      33.423     -19.423
  N      -30.551      34.285     -18.388
  N      -31.273      33.508     -20.428
  C      -31.066      32.562     -21.376
  C      -30.106      31.575     -21.404
  C      -29.168      31.522     -20.304
  O      -28.218      30.749     -20.199
  N      -30.213      30.804     -22.536
  C      -31.228      31.328     -23.193
  N      -31.773      32.401     -22.533
  O      -33.245      33.569     -29.042
  O      -30.769      33.160     -28.560
  H      -31.110      35.180     -22.309
  H      -32.798      34.179     -29.659
  H      -28.807      32.479     -18.554
  H      -31.593      30.991     -24.152
  H      -33.463      33.535     -22.169
  H      -31.485      34.296     -24.419
  H      -29.987      34.234     -17.554
  H      -33.297      35.599     -25.337
  H      -31.315      34.949     -18.408
  H      -35.251      33.637     -24.694
  H      -34.413      32.211     -26.499
  H      -34.418      33.904     -27.011
  P      -34.980      37.041     -24.057
  C      -36.472      36.502     -26.119
  O      -36.402      36.730     -24.724
  O      -34.050      37.414     -25.304
  O      -34.968      38.097     -23.002
  H      -34.005      38.383     -25.414
  H      -35.483      36.373     -26.566
  H      -36.966      37.354     -26.593
  H      -37.062      35.601     -26.302
  H      -33.404      29.915     -29.757
  H      -32.649      31.299     -30.510
  H      -34.163      31.486     -29.657

 3  4  5  6  7  8  9  10  11  12  23  26  30  31  33  0
 6-311+G(2d,p)
 ****
 35  36  37  38 0
 6-311+G(2d,p)
 ****
 1  2  13  14  15  16  17  18  19  20  21  22  24  25  27  28  29 0
 3-21G
 ****
 32  34  39  40  41  42  43  44  45  46  47  48  49 0
 3-21G
 ****


