%nproc=1
%NoSave
%Mem=1900MB
#P OB98/GEN NMR

erre ene a

0 1
  C      -87.168     -82.021     346.111
  O      -87.716     -81.317     345.015
  H      -86.954     -83.046     345.800
  H      -87.879     -82.043     346.942
  H      -86.237     -81.546     346.433
  P      -88.205     -79.814     345.301
  C      -90.737     -79.772     344.670
  O      -89.759     -79.990     345.677
  C      -90.796     -80.974     343.733
  O      -90.872     -82.205     344.485
  C      -92.009     -80.993     342.806
  O      -91.888     -80.115     341.700
  C      -91.982     -82.449     342.375
  O      -90.922     -82.651     341.421
  C      -91.671     -83.146     343.715
  N      -92.873     -83.530     344.457
  C      -93.790     -84.349     343.790
  O      -93.579     -84.718     342.635
  N      -94.951     -84.706     344.435
  C      -95.169     -84.300     345.646
  N      -96.336     -84.685     346.231
  C      -94.226     -83.447     346.392
  C      -93.114     -83.105     345.747
  O      -88.269     -79.161     343.840
  O      -87.403     -79.040     346.290
  H      -90.951     -83.593     341.171
  H      -88.704     -78.275     343.887
  H      -94.458     -83.122     347.397
  H      -92.374     -82.478     346.232
  H      -91.056     -84.043     343.559
  H      -92.906     -82.776     341.897
  H      -92.938     -80.805     343.353
  H      -89.859     -80.996     343.161
  H      -96.989     -85.218     345.673
  H      -90.461     -78.872     344.113
  H      -96.663     -84.299     347.107
  H      -91.720     -79.622     345.127
  P      -93.234     -79.736     340.910
  C      -93.575     -80.654     338.499
  O      -93.527     -80.938     339.891
  O      -92.771     -78.543     339.952
  O      -94.386     -79.343     341.780
  H      -93.491     -77.895     339.830
  H      -93.779     -81.554     337.958
  H      -92.634     -80.254     338.184
  H      -94.349     -79.940     338.307

 6  7  8  9  10  11  12  13  14  15  16  26  30  31  32  33  35 0
 6-311+G(2d,p)
 ****
 37  38 0
 6-311+G(2d,p)
 ****
 1  2  3  4  5  17  18  19  20  21  22  23  24  25 0
 3-21G
 ****
 27  28  29  34  36  39  40  41  42  43  44  45  46 0
 3-21G
 ****


