%nproc=1
%NoSave
%Mem=1900MB
#P OB98/GEN NMR

erre ene a

0 1
  C     -262.875    -194.870      69.030
  O     -261.829    -193.945      69.264
  H     -263.767    -194.323      68.720
  H     -263.100    -195.422      69.949
  H     -262.592    -195.567      68.237
  P     -260.441    -194.556      69.790
  C     -259.565    -195.620      67.595
  O     -260.138    -195.841      68.876
  C     -258.139    -196.160      67.548
  O     -258.112    -197.569      67.867
  C     -257.453    -196.004      66.197
  O     -256.894    -194.709      66.057
  C     -256.393    -197.095      66.272
  O     -255.256    -196.658      67.046
  C     -257.143    -198.219      67.000
  N     -256.473    -202.131      63.874
  C     -255.548    -201.353      64.537
  N     -254.245    -201.638      64.318
  N     -255.868    -200.369      65.341
  C     -257.201    -200.158      65.423
  C     -258.219    -200.858      64.813
  C     -257.853    -201.978      63.970
  O     -258.629    -202.754      63.423
  N     -259.447    -200.351      65.158
  C     -259.169    -199.329      65.948
  N     -257.819    -199.168      66.132
  O     -260.831    -195.197      71.207
  O     -259.322    -193.581      69.930
  H     -254.761    -195.992      66.538
  H     -260.092    -195.052      71.830
  H     -256.176    -202.895      63.295
  H     -259.905    -198.682      66.414
  H     -256.476    -198.806      67.643
  H     -256.011    -197.358      65.283
  H     -253.943    -202.169      63.513
  H     -258.144    -196.226      65.372
  H     -253.568    -201.020      64.750
  H     -257.569    -195.642      68.331
  H     -259.554    -194.545      67.390
  H     -260.175    -196.123      66.837
  P     -256.648    -194.144      64.576
  C     -259.018    -193.079      64.682
  O     -258.083    -193.832      63.922
  O     -256.142    -195.440      63.777
  O     -255.650    -193.039      64.487
  H     -255.182    -195.381      63.625
  H     -259.919    -192.955      64.118
  H     -258.603    -192.119      64.908
  H     -259.236    -193.596      65.593

 6  7  8  9  10  11  12  13  14  15  26  29  33  34 0
 6-311+G(2d,p)
 ****
 36  38  39  40  41 0
 6-311+G(2d,p)
 ****
 1  2  3  4  5  16  17  18  19  20  21  22  23  24  25 0
 3-21G
 ****
 27  28  30  31  32  35  37  42  43  44  45  46  47 0
 3-21G
 ****
 48  49 0
 3-21G
 ****


