%nproc=1
%NoSave
%Mem=1900MB
#P OB98/GEN NMR

erre ene a

0 1
  C      212.769       7.955      47.999
  O      212.722       8.532      46.706
  P      213.151      10.053      46.471
  C      215.757      10.020      46.162
  O      214.644      10.244      46.998
  C      216.774      11.148      46.376
  O      216.254      12.391      45.859
  C      217.088      11.348      47.857
  O      218.249      10.621      48.224
  C      217.257      12.851      47.960
  O      218.578      13.239      47.539
  C      216.202      13.354      46.945
  N      214.801      13.460      47.395
  C      214.024      14.536      46.980
  O      214.424      15.414      46.222
  N      212.753      14.586      47.495
  C      212.192      13.660      48.325
  O      211.161      13.834      48.964
  C      212.960      12.424      48.502
  C      214.216      12.390      48.058
  O      212.274      10.846      47.548
  O      212.941      10.573      45.086
  H      218.741      12.813      46.678
  H      211.481      11.232      47.131
  H      212.232      15.438      47.310
  H      212.497      11.604      49.036
  H      214.818      11.497      48.212
  H      216.484      14.331      46.538
  H      217.155      13.190      48.989
  H      216.228      11.049      48.470
  H      217.690      10.910      45.821
  H      215.439       9.985      45.114
  H      216.212       9.052      46.394
  P      218.455      10.178      49.747
  C      217.030       8.076      49.401
  O      217.167       9.292      50.107
  O      218.762      11.282      50.704
  O      219.652       9.115      49.662
  H      220.499       9.551      49.885
  H      216.227       7.493      49.859
  H      217.959       7.499      49.444
  H      216.768       8.282      48.360
  H      212.445       6.936      47.947
  H      212.125       8.501      48.657
  H      213.772       7.992      48.370

 3  4  5  6  7  8  9  10  11  12  13  23  28  29  30  31  32 0
 6-311+G(2d,p)
 ****
 33  34 0
 6-311+G(2d,p)
 ****
 1  2  14  15  16  17  18  19  20  21  22  24  25  26  27 0
 3-21G
 ****
 35  36  37  38  39  40  41  42  43  44  45 0
 3-21G
 ****


