%nproc=1
%NoSave
%Mem=1900MB
#P OB98/GEN NMR

erre ene a

0 1
  C       84.023      93.117     -29.218
  O       83.250      92.767     -28.088
  H       84.341      94.157     -29.115
  H       83.430      93.018     -30.132
  H       84.909      92.480     -29.277
  P       82.635      91.286     -28.070
  C       84.779      90.220     -27.113
  O       83.414      90.543     -26.876
  C       85.396      89.572     -25.873
  O       85.642      90.608     -24.885
  C       84.496      88.517     -25.220
  O       85.312      87.465     -24.700
  C       83.859      89.272     -24.066
  O       83.406      88.402     -23.034
  C       84.995      90.210     -23.664
  N       82.357      91.661     -19.559
  C       82.848      90.463     -19.942
  N       83.565      90.171     -21.046
  C       83.810      91.284     -21.763
  C       83.376      92.570     -21.501
  C       82.603      92.742     -20.338
  N       82.067      93.949     -19.957
  N       83.792      93.431     -22.496
  C       84.475      92.679     -23.340
  N       84.494      91.369     -22.946
  O       82.643      90.567     -29.377
  O       81.188      91.535     -27.433
  H       83.097      88.949     -22.281
  H       81.238      92.110     -26.646
  H       82.631      89.629     -19.278
  H       84.955      93.028     -24.249
  H       85.737      89.723     -23.019
  H       82.995      89.842     -24.428
  H       83.752      88.106     -25.902
  H       86.372      89.152     -26.143
  H       85.340      91.124     -27.371
  H       81.527      93.983     -19.107
  H       82.242      94.769     -20.520
  H       84.819      89.530     -27.963
  P       85.160      85.989     -25.306
  C       86.852      86.415     -27.201
  O       86.514      85.609     -26.082
  O       83.903      85.728     -26.066
  O       85.243      85.061     -23.999
  H       84.577      84.350     -24.071
  H       87.768      86.064     -27.630
  H       86.972      87.431     -26.886
  H       86.072      86.357     -27.931

 6  7  8  9  10  11  12  13  14  15  25  28  32  33  34  35 0
 6-311+G(2d,p)
 ****
 36  39  40 0
 6-311+G(2d,p)
 ****
 1  2  3  4  5  16  17  18  19  20  21  22  23  24 0
 3-21G
 ****
 26  27  29  30  31  37  38  41  42  43  44  45  46  47 0
 3-21G
 ****
 48 0
 3-21G
 ****


