%nproc=1
%NoSave
%Mem=1900MB
#P OB98/GEN NMR

erre ene a

0 1
  C      460.511    -123.876     623.284
  O      460.965    -122.531     623.129
  P      460.122    -121.378     623.859
  C      458.316    -120.943     622.009
  O      458.631    -121.502     623.276
  C      456.863    -120.461     621.992
  O      455.952    -121.590     622.090
  C      456.501    -119.549     623.153
  O      457.035    -118.247     622.983
  C      454.980    -119.627     623.114
  O      454.462    -118.744     622.096
  C      454.740    -121.099     622.706
  N      454.332    -121.936     623.826
  C      452.966    -122.032     624.038
  O      452.130    -121.431     623.365
  N      452.582    -122.828     625.090
  C      453.412    -123.504     625.929
  O      453.005    -124.206     626.848
  C      454.854    -123.322     625.686
  C      455.241    -122.560     624.662
  O      460.717    -120.067     623.162
  O      460.246    -121.418     625.347
  H      460.945    -120.205     622.227
  H      453.495    -118.885     622.076
  H      451.587    -122.920     625.255
  H      455.542    -123.817     626.354
  H      456.303    -122.417     624.461
  H      453.964    -121.152     621.935
  H      454.515    -119.335     624.062
  H      456.867    -119.981     624.097
  H      456.682    -119.948     621.043
  H      458.449    -121.689     621.225
  H      459.003    -120.118     621.801
  P      457.641    -117.537     624.294
  C      455.339    -117.404     625.529
  O      456.664    -117.894     625.504
  O      457.322    -115.995     623.976
  O      459.088    -117.831     624.521
  H      456.423    -115.855     623.635
  H      454.751    -118.018     626.200
  H      454.884    -117.434     624.530
  H      455.344    -116.373     625.890
  H      461.161    -124.536     622.749
  H      459.517    -123.964     622.898
  H      460.514    -124.136     624.322

 3  4  5  6  7  8  9  10  11  12  13  24  28  29  30  31  32 0
 6-311+G(2d,p)
 ****
 33  34 0
 6-311+G(2d,p)
 ****
 1  2  14  15  16  17  18  19  20  21  22  23  25  26  27 0
 3-21G
 ****
 35  36  37  38  39  40  41  42  43  44  45 0
 3-21G
 ****


