%nproc=1
%NoSave
%Mem=1900MB
#P OB98/GEN NMR

erre ene a

0 1
  C     -808.051     855.088     112.987
  O     -808.184     856.137     113.939
  H     -809.045     854.694     112.764
  H     -807.431     854.278     113.385
  H     -807.603     855.474     112.071
  P     -806.845     856.682     114.652
  C     -806.672     858.850     113.259
  O     -806.094     857.573     113.531
  C     -805.644     859.975     113.447
  O     -804.453     859.713     112.666
  C     -806.135     861.342     112.969
  O     -807.184     861.891     113.725
  C     -804.816     862.101     112.850
  O     -804.379     862.631     114.105
  C     -803.842     860.980     112.370
  N     -803.507     861.116     110.954
  C     -802.436     861.938     110.659
  O     -801.795     862.578     111.509
  N     -802.130     862.065     109.329
  C     -802.806     861.493     108.301
  O     -802.484     861.645     107.121
  C     -803.951     860.651     108.666
  C     -804.253     860.493     109.965
  O     -805.970     855.638     115.287
  O     -807.384     857.782     115.677
  H     -804.986     863.349     114.343
  H     -806.689     858.021     116.346
  H     -801.346     862.650     109.102
  H     -804.519     860.173     107.874
  H     -805.094     859.892     110.260
  H     -802.914     861.021     112.954
  H     -804.896     862.949     112.149
  H     -806.506     861.226     111.937
  H     -805.358     859.997     114.495
  H     -807.504     859.004     113.951
  H     -807.055     858.857     112.230
  P     -808.035     863.140     113.260
  C     -809.379     861.707     111.521
  O     -808.594     862.878     111.775
  O     -807.466     864.490     113.544
  O     -809.384     862.973     114.142
  H     -809.692     863.864     114.361
  H     -809.667     861.688     110.491
  H     -810.254     861.724     112.136
  H     -808.802     860.835     111.746

 6  7  8  9  10  11  12  13  14  15  16  26  31  32  33  34  35 0
 6-311+G(2d,p)
 ****
 36  37 0
 6-311+G(2d,p)
 ****
 1  2  3  4  5  17  18  19  20  21  22  23  24  25 0
 3-21G
 ****
 27  28  29  30  38  39  40  41  42  43  44  45 0
 3-21G
 ****


