%nproc=1
%NoSave
%Mem=1900MB
#P OB98/GEN NMR

erre ene a

0 1
  C      124.212     846.967     973.955
  O      123.882     846.083     975.008
  P      123.040     846.703     976.233
  C      121.427     844.659     976.462
  O      122.442     845.459     977.053
  C      120.933     843.640     977.492
  O      120.614     844.284     978.730
  C      119.676     842.882     977.066
  O      120.005     841.815     976.193
  C      119.114     842.439     978.404
  O      119.789     841.251     978.880
  C      119.437     843.641     979.309
  N      114.922     844.521     981.419
  C      115.687     843.348     981.378
  N      115.174     842.287     982.034
  N      116.832     843.250     980.751
  C      117.200     844.392     980.129
  C      116.536     845.610     980.092
  C      115.295     845.715     980.829
  O      114.641     846.742     980.974
  N      117.208     846.519     979.342
  C      118.316     845.883     978.949
  N      118.353     844.594     979.429
  O      121.762     847.343     975.519
  O      123.785     847.701     977.077
  H      119.511     841.063     979.796
  H      121.884     848.305     975.385
  H      114.059     844.543     981.934
  H      119.097     846.310     978.356
  H      119.700     843.330     980.328
  H      118.053     842.180     978.354
  H      114.301     842.279     982.531
  H      118.963     843.562     976.576
  H      115.706     841.429     982.013
  H      121.755     842.915     977.684
  H      121.851     844.130     975.604
  H      120.612     845.298     976.135
  P      118.810     841.124     975.367
  C      120.826     840.059     974.142
  O      119.448     839.988     974.438
  O      118.360     842.273     974.343
  O      117.655     840.692     976.211
  H      117.398     842.233     974.209
  H      121.217     839.048     973.994
  H      121.399     840.547     974.942
  H      120.966     840.628     973.214
  H      124.767     846.440     973.207
  H      124.804     847.772     974.337
  H      123.315     847.358     973.523

 3  4  5  6  7  8  9  10  11  12  23  26  30  31 0
 6-311+G(2d,p)
 ****
 33  35  36  37  38 0
 6-311+G(2d,p)
 ****
 1  2  13  14  15  16  17  18  19  20  21  22  24  25 0
 3-21G
 ****
 27  28  29  32  34  39  40  41  42  43  44  45  46  47  48  49 0
 3-21G
 ****


