%nproc=1
%NoSave
%Mem=1900MB
#P OB98/GEN NMR

erre ene a

0 1
  C        4.067    -199.363     152.462
  O        4.933    -198.384     153.011
  P        6.517    -198.631     153.062
  C        6.249    -199.202     155.555
  O        6.961    -198.433     154.591
  C        6.452    -198.631     156.958
  O        5.518    -199.269     157.861
  C        7.854    -198.863     157.508
  O        8.237    -197.729     158.293
  C        7.700    -200.055     158.438
  O        8.708    -200.051     159.463
  C        6.265    -199.863     158.941
  N        5.596    -203.331     162.665
  C        6.272    -202.164     162.638
  N        6.429    -201.304     161.607
  C        5.748    -201.731     160.531
  C        5.011    -202.901     160.410
  C        4.950    -203.726     161.544
  N        4.249    -204.913     161.572
  N        4.480    -203.013     159.137
  C        4.874    -201.924     158.513
  N        5.633    -201.112     159.318
  O        7.310    -197.840     152.079
  O        6.687    -200.204     152.836
  H        9.527    -200.412     159.062
  H        7.471    -200.385     152.283
  H        6.755    -201.880     163.571
  H        4.648    -201.681     157.488
  H        6.224    -199.179     159.798
  H        7.806    -200.983     157.863
  H        8.598    -199.041     156.724
  H        6.212    -197.561     156.938
  H        6.627    -200.227     155.525
  H        4.158    -205.378     162.462
  H        3.628    -205.120     160.799
  H        5.184    -199.215     155.293
  P        9.669    -197.083     157.945
  C       10.885    -198.277     159.913
  O       10.459    -197.062     159.339
  O        9.537    -195.786     157.216
  O       10.344    -198.263     157.094
  H        9.956    -199.138     157.325
  H       11.364    -198.061     160.872
  H       11.613    -198.767     159.264
  H       10.031    -198.941     160.085
  H        3.056    -199.017     152.518
  H        4.163    -200.274     153.015
  H        4.328    -199.537     151.439

 3  4  5  6  7  8  9  10  11  12  22  25  29  30  31  32 0
 6-311+G(2d,p)
 ****
 33  36  37 0
 6-311+G(2d,p)
 ****
 1  2  13  14  15  16  17  18  19  20  21  23  24  26 0
 3-21G
 ****
 27  28  34  35  38  39  40  41  42  43  44  45  46  47  48 0
 3-21G
 ****


