%nproc=1
%NoSave
%Mem=1900MB
#P OB98/GEN NMR

erre ene a

0 1
  C      464.338    -266.725    -638.942
  O      463.145    -265.992    -638.659
  P      461.735    -266.666    -638.987
  C      461.212    -267.435    -636.584
  O      461.477    -267.839    -637.922
  C      460.318    -268.453    -635.873
  O      460.867    -269.783    -635.945
  C      460.144    -268.166    -634.389
  O      459.270    -267.070    -634.190
  C      459.639    -269.506    -633.886
  O      458.230    -269.638    -634.102
  C      460.410    -270.505    -634.775
  N      461.518    -271.158    -634.085
  C      461.176    -272.264    -633.303
  O      460.000    -272.616    -633.195
  N      462.180    -272.938    -632.654
  C      463.409    -272.542    -632.764
  N      464.361    -273.249    -632.101
  C      463.802    -271.369    -633.575
  C      462.813    -270.727    -634.194
  O      461.513    -267.042    -640.417
  O      460.685    -265.541    -638.525
  H      458.042    -270.598    -634.132
  H      459.882    -265.608    -639.074
  H      464.841    -271.079    -633.640
  H      463.019    -269.859    -634.803
  H      459.741    -271.287    -635.146
  H      459.813    -269.632    -632.810
  H      461.125    -267.942    -633.937
  H      459.339    -268.448    -636.367
  H      464.055    -274.041    -631.548
  H      460.724    -266.451    -636.590
  H      465.348    -273.051    -632.164
  H      462.168    -267.310    -636.059
  P      459.412    -266.239    -632.818
  C      461.881    -265.581    -633.269
  O      460.967    -266.238    -632.415
  O      458.755    -267.224    -631.735
  O      458.742    -264.906    -632.813
  H      458.310    -266.695    -631.045
  H      462.804    -265.390    -632.715
  H      461.482    -264.627    -633.616
  H      462.111    -266.218    -634.127
  H      465.190    -266.139    -638.667
  H      464.380    -266.947    -639.988
  H      464.337    -267.637    -638.383

 3  4  5  6  7  8  9  10  11  12  13  23  27  28  29  30  32 0
 6-311+G(2d,p)
 ****
 34  35 0
 6-311+G(2d,p)
 ****
 1  2  14  15  16  17  18  19  20  21  22  24  25  26 0
 3-21G
 ****
 31  33  36  37  38  39  40  41  42  43  44  45  46 0
 3-21G
 ****


