%nproc=1
%NoSave
%Mem=1900MB
#P OB98/GEN NMR

erre ene a

0 1
  C       70.614     486.686    -116.091
  O       69.242     487.045    -116.015
  P       68.163     485.852    -115.976
  C       68.125     486.270    -113.409
  O       68.179     485.315    -114.466
  C       66.753     486.264    -112.752
  O       66.393     484.921    -112.390
  C       66.665     487.076    -111.463
  O       66.496     488.459    -111.724
  C       65.416     486.477    -110.833
  O       64.243     487.087    -111.407
  C       65.508     484.999    -111.239
  N       64.422     481.187    -108.083
  C       63.634     481.796    -109.041
  N       62.383     481.299    -109.196
  N       64.034     482.800    -109.780
  C       65.316     483.168    -109.537
  C       66.196     482.643    -108.622
  C       65.725     481.567    -107.774
  O       66.358     481.028    -106.873
  N       67.420     483.261    -108.686
  C       67.285     484.136    -109.669
  N       66.024     484.128    -110.197
  O       68.889     484.681    -116.792
  O       66.824     486.182    -116.542
  H       63.472     486.593    -111.073
  H       68.219     484.077    -117.171
  H       64.070     480.410    -107.557
  H       68.084     484.777    -110.022
  H       64.533     484.608    -111.564
  H       65.363     486.646    -109.753
  H       62.074     480.455    -108.750
  H       67.532     486.881    -110.820
  H       61.809     481.719    -109.921
  H       66.013     486.624    -113.486
  H       68.320     487.267    -113.824
  H       68.902     486.031    -112.681
  P       66.785     489.459    -110.491
  C       68.862     490.460    -111.704
  O       68.356     489.772    -110.567
  O       66.651     488.509    -109.213
  O       65.880     490.634    -110.426
  H       66.402     489.036    -108.422
  H       68.152     491.212    -112.065
  H       69.066     489.735    -112.502
  H       69.790     490.957    -111.428
  H       71.214     487.572    -116.110
  H       70.786     486.120    -116.983
  H       70.876     486.096    -115.238

 3  4  5  6  7  8  9  10  11  12  23  26  30  31  33  0
 6-311+G(2d,p)
 ****
 35  36  37  38 0
 6-311+G(2d,p)
 ****
 1  2  13  14  15  16  17  18  19  20  21  22  24  25  27  28  29 0
 3-21G
 ****
 32  34  39  40  41  42  43  44  45  46  47  48  49 0
 3-21G
 ****


