%nproc=1
%NoSave
%Mem=1900MB
#P OB98/GEN NMR

erre ene a

0 1
  C      571.769     254.371    -155.882
  O      571.720     255.732    -155.446
  P      573.049     256.618    -155.603
  C      572.073     258.207    -157.423
  O      572.636     258.075    -156.115
  C      571.143     259.420    -157.479
  O      569.841     259.103    -156.952
  C      571.635     260.594    -156.646
  O      572.674     261.283    -157.318
  C      570.365     261.411    -156.461
  O      570.196     262.378    -157.516
  C      569.249     260.341    -156.516
  N      568.568     260.175    -155.239
  C      567.219     260.565    -155.214
  O      566.692     261.039    -156.219
  N      566.528     260.429    -154.040
  C      567.123     259.977    -152.977
  N      566.385     259.871    -151.842
  C      568.553     259.577    -152.955
  C      569.202     259.702    -154.117
  O      573.771     255.965    -156.875
  O      573.935     256.595    -154.397
  H      570.888     263.059    -157.361
  H      574.737     256.024    -156.781
  H      569.008     259.208    -152.053
  H      570.250     259.438    -154.199
  H      568.491     260.607    -157.269
  H      570.378     261.974    -155.524
  H      571.988     260.235    -155.664
  H      571.034     259.729    -158.535
  H      565.416     260.158    -151.887
  H      571.526     257.301    -157.694
  H      566.749     259.536    -150.966
  H      572.887     258.304    -158.147
  P      573.485     262.393    -156.495
  C      575.777     261.275    -156.844
  O      574.960     262.380    -157.142
  O      573.748     261.636    -155.100
  O      572.844     263.719    -156.308
  H      574.169     262.252    -154.467
  H      576.648     261.294    -157.499
  H      575.236     260.335    -157.007
  H      576.118     261.334    -155.799
  H      570.818     253.909    -155.717
  H      572.521     253.847    -155.330
  H      572.004     254.339    -156.925

 3  4  5  6  7  8  9  10  11  12  13  21  23  27  28  29  30  32 0
 6-311+G(2d,p)
 ****
 34  35 0
 6-311+G(2d,p)
 ****
 1  2  14  15  16  17  18  19  20  22  24  25  26 0
 3-21G
 ****
 31  33  36  37  38  39  40  41  42  43  44  45  46 0
 3-21G
 ****


