%nproc=1
%NoSave
%Mem=1900MB
#P OB98/GEN NMR

erre ene a

0 1
  C     -266.061      64.365      59.551
  O     -267.321      63.711      59.345
  P     -268.126      64.065      58.002
  C     -270.230      64.758      59.403
  O     -269.677      63.936      58.384
  C     -271.326      64.000      60.149
  O     -270.749      63.009      61.036
  C     -272.197      64.881      61.037
  O     -273.110      65.649      60.265
  C     -272.843      63.834      61.935
  O     -273.945      63.205      61.263
  C     -271.690      62.819      62.120
  N     -271.036      62.925      63.420
  C     -270.743      61.718      64.051
  O     -271.033      60.621      63.573
  N     -270.124      61.816      65.268
  C     -269.802      62.976      65.912
  O     -269.235      63.004      66.997
  C     -270.181      64.217      65.219
  C     -270.774      64.139      64.025
  O     -267.822      62.771      57.114
  O     -267.707      65.364      57.398
  H     -267.767      61.953      57.635
  H     -274.601      63.908      61.089
  H     -269.891      60.954      65.735
  H     -269.965      65.157      65.713
  H     -271.062      65.044      63.498
  H     -272.071      61.795      62.015
  H     -273.226      64.262      62.869
  H     -271.565      65.547      61.637
  H     -271.947      63.478      59.405
  H     -270.656      65.663      58.961
  H     -269.427      65.068      60.081
  P     -273.226      67.213      60.628
  C     -275.703      67.508      59.846
  O     -274.344      67.823      59.655
  O     -271.846      67.770      60.042
  O     -273.429      67.476      62.086
  H     -271.637      67.419      59.161
  H     -276.315      68.262      59.338
  H     -275.968      67.505      60.906
  H     -275.921      66.530      59.411
  H     -265.637      64.039      60.478
  H     -266.209      65.424      59.580
  H     -265.397      64.120      58.749

 3  4  5  6  7  8  9  10  11  12  13  24  28  29  30  31  32 0
 6-311+G(2d,p)
 ****
 33  34 0
 6-311+G(2d,p)
 ****
 1  2  14  15  16  17  18  19  20  21  22  23  25  26  27 0
 3-21G
 ****
 35  36  37  38  39  40  41  42  43  44  45 0
 3-21G
 ****


