%nproc=1
%NoSave
%Mem=1900MB
#P OB98/GEN NMR

erre ene a

0 1
  C     -341.470    -992.179     270.336
  O     -342.084    -990.939     270.607
  H     -340.990    -992.127     269.356
  H     -342.220    -992.976     270.318
  H     -340.700    -992.408     271.083
  P     -342.579    -990.629     272.096
  C     -341.127    -988.497     272.261
  O     -342.438    -989.043     272.316
  C     -341.176    -986.995     271.956
  O     -341.393    -986.811     270.527
  C     -342.341    -986.308     272.680
  O     -342.078    -984.932     272.948
  C     -343.469    -986.405     271.663
  O     -344.482    -985.423     271.852
  C     -342.706    -986.241     270.352
  N     -345.803    -985.678     266.331
  C     -345.554    -984.797     267.367
  N     -346.191    -983.606     267.319
  N     -344.736    -985.064     268.363
  C     -344.217    -986.323     268.319
  C     -344.431    -987.286     267.364
  C     -345.282    -986.963     266.243
  O     -345.573    -987.722     265.325
  N     -343.739    -988.435     267.658
  C     -343.124    -988.178     268.791
  N     -343.358    -986.890     269.214
  O     -341.403    -991.210     273.017
  O     -343.906    -991.206     272.474
  H     -344.040    -984.554     271.937
  H     -341.723    -991.394     273.907
  H     -346.410    -985.403     265.582
  H     -342.474    -988.856     269.327
  H     -342.577    -985.197     270.091
  H     -343.938    -987.389     271.760
  H     -346.962    -983.444     266.688
  H     -342.614    -986.808     273.611
  H     -346.248    -983.092     268.206
  H     -340.205    -986.537     272.190
  H     -340.581    -989.033     271.478
  H     -340.598    -988.678     273.206
  P     -342.567    -984.324     274.352
  C     -341.133    -985.497     276.253
  O     -341.367    -984.393     275.409
  O     -343.605    -985.403     274.895
  O     -343.159    -982.958     274.250
  H     -344.494    -985.009     274.941
  H     -340.277    -985.303     276.865
  H     -340.957    -986.369     275.659
  H     -341.988    -985.657     276.876

 6  7  8  9  10  11  12  13  14  15  26  29  33  34 0
 6-311+G(2d,p)
 ****
 36  38  39  40  41 0
 6-311+G(2d,p)
 ****
 1  2  3  4  5  16  17  18  19  20  21  22  23  24  25 0
 3-21G
 ****
 27  28  30  31  32  35  37  42  43  44  45  46  47 0
 3-21G
 ****
 48  49 0
 3-21G
 ****


