%nproc=1
%NoSave
%Mem=1900MB
#P OB98/GEN NMR

erre ene a

0 1
  C      565.754     267.422     220.886
  O      566.538     268.460     221.443
  H      566.247     267.057     219.984
  H      564.763     267.798     220.617
  H      565.657     266.594     221.595
  P      566.032     269.175     222.783
  C      567.080     270.972     224.342
  O      567.266     270.106     223.229
  C      568.406     271.581     224.769
  O      569.372     270.561     225.110
  C      569.101     272.433     223.700
  O      568.487     273.685     223.486
  C      570.482     272.549     224.319
  O      570.445     273.501     225.400
  C      570.694     271.110     224.849
  N      571.437     270.264     223.907
  C      572.833     270.315     223.985
  O      573.390     271.056     224.805
  N      573.570     269.563     223.107
  C      572.964     268.836     222.215
  N      573.752     268.109     221.371
  C      571.506     268.767     222.091
  C      570.796     269.492     222.955
  O      565.495     268.273     223.847
  O      564.971     270.271     222.278
  H      569.987     274.297     225.059
  H      564.617     270.738     223.077
  H      571.048     268.165     221.311
  H      569.719     269.497     222.926
  H      571.228     271.127     225.812
  H      571.236     272.888     223.614
  H      569.187     271.870     222.758
  H      568.220     272.166     225.679
  H      574.756     268.183     221.481
  H      566.628     270.384     225.153
  H      573.366     267.580     220.598
  H      566.393     271.781     224.069
  P      568.785     274.410     222.078
  C      567.879     276.592     220.970
  O      567.678     275.560     221.922
  O      568.355     273.302     221.003
  O      570.196     274.879     221.892
  H      569.133     272.818     220.674
  H      567.051     277.269     220.998
  H      567.958     276.165     219.992
  H      568.780     277.121     221.202

 6  7  8  9  10  11  12  13  14  15  16  26  30  31  32  33  35 0
 6-311+G(2d,p)
 ****
 37  38 0
 6-311+G(2d,p)
 ****
 1  2  3  4  5  17  18  19  20  21  22  23  24  25 0
 3-21G
 ****
 27  28  29  34  36  39  40  41  42  43  44  45  46 0
 3-21G
 ****


