%nproc=1
%NoSave
%Mem=1900MB
#P OB98/GEN NMR

erre ene a

0 1
  C     -604.548     -28.684    -400.288
  O     -604.966     -30.025    -400.460
  P     -604.441     -31.113    -399.404
  C     -602.629     -32.125    -400.978
  O     -602.902     -31.407    -399.781
  C     -601.123     -32.232    -401.198
  O     -600.559     -30.928    -401.488
  C     -600.351     -32.738    -399.980
  O     -600.400     -34.151    -399.873
  C     -598.938     -32.274    -400.319
  O     -598.335     -33.190    -401.256
  C     -599.192     -30.915    -400.978
  N     -595.817     -27.966    -398.625
  C     -595.633     -28.883    -399.648
  N     -594.362     -29.079    -400.061
  N     -596.613     -29.543    -400.217
  C     -597.822     -29.242    -399.697
  C     -598.130     -28.356    -398.689
  C     -597.044     -27.644    -398.059
  O     -597.135     -26.863    -397.114
  N     -599.488     -28.324    -398.448
  C     -599.993     -29.190    -399.306
  N     -599.032     -29.807    -400.053
  O     -605.191     -32.459    -399.843
  O     -604.696     -30.765    -397.962
  H     -598.893     -33.167    -402.064
  H     -605.160     -33.111    -399.119
  H     -595.030     -27.491    -398.218
  H     -601.050     -29.409    -399.404
  H     -598.533     -30.749    -401.835
  H     -598.288     -32.240    -399.441
  H     -593.559     -28.642    -399.613
  H     -600.689     -32.244    -399.063
  H     -594.184     -29.788    -400.762
  H     -600.948     -32.870    -402.066
  H     -603.080     -31.596    -401.833
  H     -603.077     -33.116    -400.925
  P     -600.389     -34.762    -398.387
  C     -597.823     -34.999    -398.063
  O     -599.002     -34.289    -397.744
  O     -600.184     -36.328    -398.641
  O     -601.628     -34.470    -397.591
  H     -600.565     -36.842    -397.900
  H     -596.964     -34.396    -397.762
  H     -597.761     -35.196    -399.145
  H     -597.801     -35.942    -397.505
  H     -604.973     -28.076    -401.060
  H     -603.481     -28.634    -400.341
  H     -604.875     -28.328    -399.333

 3  4  5  6  7  8  9  10  11  12  23  26  30  31 0
 6-311+G(2d,p)
 ****
 33  35  36  37  38 0
 6-311+G(2d,p)
 ****
 1  2  13  14  15  16  17  18  19  20  21  22  24  25 0
 3-21G
 ****
 27  28  29  32  34  39  40  41  42  43  44  45  46  47  48  49 0
 3-21G
 ****


