%nproc=1
%NoSave
%Mem=1900MB
#P OB98/GEN NMR

erre ene a

0 1
  C       30.245     -89.460      42.978
  O       30.214     -89.752      41.590
  P       31.400     -89.171      40.679
  C       29.828     -87.229      40.010
  O       31.110     -87.602      40.498
  C       29.627     -85.721      40.110
  O       29.549     -85.349      41.514
  C       30.753     -84.890      39.474
  O       30.178     -83.806      38.730
  C       31.473     -84.294      40.671
  O       32.146     -83.084      40.341
  C       30.306     -84.129      41.644
  N       32.673     -80.977      44.800
  C       32.241     -80.769      43.506
  N       32.535     -79.569      42.958
  N       31.586     -81.657      42.807
  C       31.335     -82.800      43.492
  C       31.703     -83.121      44.779
  C       32.481     -82.150      45.518
  O       32.970     -82.308      46.634
  N       31.253     -84.367      45.130
  C       30.618     -84.804      44.059
  N       30.683     -83.908      43.021
  O       31.075     -89.787      39.237
  O       32.777     -89.528      41.122
  H       32.919     -83.325      39.797
  H       31.848     -90.287      38.911
  H       33.191     -80.264      45.287
  H       30.130     -85.766      43.978
  H       29.664     -83.294      41.335
  H       32.211     -85.014      41.041
  H       33.005     -78.827      43.452
  H       31.425     -85.464      38.830
  H       32.206     -79.389      42.018
  H       28.658     -85.469      39.660
  H       29.058     -87.735      40.602
  H       29.739     -87.551      38.967
  P       31.079     -83.214      37.539
  C       32.201     -81.388      39.018
  O       32.358     -82.562      38.246
  O       30.237     -81.952      37.031
  O       31.359     -84.193      36.447
  H       30.459     -81.746      36.104
  H       31.148     -81.136      39.180
  H       32.687     -80.555      38.504
  H       32.681     -81.534      39.989
  H       29.399     -89.908      43.456
  H       30.215     -88.400      43.120
  H       31.145     -89.852      43.405

 3  4  5  6  7  8  9  10  11  12  23  26  30  31  33  0
 6-311+G(2d,p)
 ****
 35  36  37  38 0
 6-311+G(2d,p)
 ****
 1  2  13  14  15  16  17  18  19  20  21  22  24  25  27  28  29 0
 3-21G
 ****
 32  34  39  40  41  42  43  44  45  46  47  48  49 0
 3-21G
 ****


