%nproc=1
%NoSave
%Mem=1900MB
#P OB98/GEN NMR

erre ene a

0 1
  C     -190.493    -103.561      52.954
  O     -191.844    -103.694      52.517
  P     -192.434    -104.947      51.728
  C     -193.014    -104.005      49.343
  O     -192.137    -104.757      50.169
  C     -192.911    -104.454      47.876
  O     -191.599    -104.072      47.363
  C     -193.034    -105.975      47.716
  O     -193.835    -106.366      46.604
  C     -191.587    -106.435      47.723
  O     -191.400    -107.723      47.158
  C     -190.882    -105.280      47.014
  N     -186.069    -104.888      45.359
  C     -187.221    -105.140      44.643
  N     -187.081    -105.327      43.313
  N     -188.408    -105.216      45.185
  C     -188.399    -105.088      46.529
  C     -187.320    -104.851      47.352
  C     -186.017    -104.717      46.737
  O     -184.966    -104.475      47.322
  N     -187.703    -104.772      48.666
  C     -189.004    -104.977      48.643
  N     -189.476    -105.167      47.363
  O     -193.819    -105.361      52.103
  O     -191.444    -106.156      52.137
  H     -191.588    -107.660      46.203
  H     -191.988    -106.968      52.138
  H     -185.182    -104.815      44.887
  H     -189.651    -104.985      49.512
  H     -190.912    -105.384      45.927
  H     -191.264    -106.495      48.772
  H     -186.188    -105.403      42.852
  H     -193.556    -106.414      48.572
  H     -187.891    -105.728      42.833
  H     -193.670    -103.924      47.291
  H     -192.698    -102.960      49.436
  H     -194.040    -104.073      49.705
  P     -194.974    -107.483      46.539
  C     -193.567    -109.328      45.448
  O     -194.281    -108.925      46.602
  O     -195.533    -107.419      45.041
  O     -196.091    -107.292      47.514
  H     -196.481    -107.177      45.052
  H     -193.376    -110.403      45.510
  H     -192.608    -108.802      45.408
  H     -194.141    -109.119      44.542
  H     -190.371    -102.624      53.456
  H     -189.839    -103.600      52.108
  H     -190.255    -104.359      53.626

 3  4  5  6  7  8  9  10  11  12  23  26  30  31 0
 6-311+G(2d,p)
 ****
 33  35  36  37  38 0
 6-311+G(2d,p)
 ****
 1  2  13  14  15  16  17  18  19  20  21  22  24  25 0
 3-21G
 ****
 27  28  29  32  34  39  40  41  42  43  44  45  46  47  48  49 0
 3-21G
 ****


