%nproc=1
%NoSave
%Mem=1900MB
#P OB98/GEN NMR

erre ene a

0 1
  C      455.072    -895.040    -899.515
  O      454.842    -894.830    -898.105
  P      453.864    -893.640    -897.635
  C      452.261    -894.530    -895.745
  O      452.485    -894.270    -897.145
  C      452.334    -896.030    -895.465
  O      453.595    -896.580    -895.905
  C      452.186    -896.420    -894.015
  O      450.850    -896.320    -893.565
  C      452.740    -897.830    -894.025
  O      451.726    -898.780    -894.415
  C      453.852    -897.740    -895.075
  N      455.199    -897.700    -894.475
  C      455.775    -898.920    -894.175
  O      455.190    -900.000    -894.315
  N      457.044    -898.860    -893.635
  C      457.745    -897.740    -893.355
  O      458.872    -897.740    -892.865
  C      457.027    -896.460    -893.645
  C      455.818    -896.490    -894.165
  O      453.476    -892.960    -899.035
  O      454.494    -892.620    -896.725
  H      452.165    -899.670    -894.395
  H      453.254    -892.030    -898.895
  H      457.493    -899.750    -893.445
  H      457.537    -895.520    -893.395
  H      455.293    -895.570    -894.385
  H      453.811    -898.600    -895.745
  H      453.086    -898.140    -893.035
  H      452.856    -895.780    -893.405
  H      451.530    -896.520    -896.095
  H      451.291    -894.150    -895.475
  H      453.031    -893.990    -895.175
  P      450.303    -894.840    -893.135
  C      448.220    -894.360    -894.645
  O      449.616    -894.260    -894.455
  O      451.685    -894.070    -892.995
  O      449.470    -894.900    -891.905
  H      452.376    -894.390    -893.625
  H      447.672    -894.310    -893.685
  H      447.996    -895.300    -895.175
  H      447.902    -893.540    -895.275
  H      455.741    -895.864    -899.648
  H      455.503    -894.158    -899.941
  H      454.142    -895.253    -900.000

 3  4  5  6  7  8  9  10  11  12  13  23  28  29  30  31  32 0
 6-311+G(2d,p)
 ****
 33  34 0
 6-311+G(2d,p)
 ****
 1  2  14  15  16  17  18  19  20  21  22  24  25  26 0
 3-21G
 ****
 27  35  36  37  38  39  40  41  42  43  44  45 0
 3-21G
 ****


