%nproc=1
%NoSave
%Mem=1900MB
#P OB98/GEN NMR

erre ene a

0 1
  C      -46.924     440.213     -98.469
  O      -47.583     440.730     -99.598
  P      -46.788     440.871    -100.994
  C      -49.107     441.632    -101.824
  O      -47.708     441.746    -101.996
  C      -49.837     442.487    -102.861
  O      -49.271     442.294    -104.176
  C      -51.326     442.148    -103.008
  O      -52.064     442.691    -101.926
  C      -51.641     442.776    -104.364
  O      -51.863     444.195    -104.233
  C      -50.327     442.508    -105.131
  N      -52.386     440.796    -109.482
  C      -52.610     441.921    -108.746
  N      -52.049     442.289    -107.584
  C      -51.183     441.341    -107.159
  C      -50.896     440.134    -107.778
  C      -51.511     439.873    -109.014
  N      -51.244     438.764    -109.776
  N      -49.992     439.411    -106.990
  C      -49.756     440.170    -105.951
  N      -50.407     441.366    -106.027
  O      -46.284     439.581    -101.557
  O      -45.581     441.863    -100.644
  H      -52.486     444.305    -103.499
  H      -44.733     441.402    -100.807
  H      -53.322     442.617    -109.180
  H      -49.112     439.904    -105.112
  H      -50.036     443.387    -105.742
  H      -52.509     442.333    -104.832
  H      -51.450     441.059    -103.071
  H      -49.710     443.542    -102.586
  H      -49.382     441.963    -100.827
  H      -51.637     438.766    -110.711
  H      -50.398     438.245    -109.597
  H      -49.407     440.561    -101.942
  P      -53.408     441.927    -101.423
  C      -52.976     442.598     -98.977
  O      -53.866     442.661    -100.066
  O      -53.308     440.431    -101.352
  O      -54.513     442.395    -102.497
  H      -55.162     441.680    -102.602
  H      -53.056     441.602     -98.507
  H      -53.250     443.352     -98.257
  H      -51.933     442.757     -99.308
  H      -47.600     440.192     -97.640
  H      -46.086     440.833     -98.230
  H      -46.585     439.220     -98.678

 3  4  5  6  7  8  9  10  11  12  22  25  29  30  31  32 0
 6-311+G(2d,p)
 ****
 33  36  37 0
 6-311+G(2d,p)
 ****
 1  2  13  14  15  16  17  18  19  20  21  23  24  26 0
 3-21G
 ****
 27  28  34  35  38  39  40  41  42  43  44  45  46  47  48 0
 3-21G
 ****


