%nproc=1
%NoSave
%Mem=1900MB
#P OB98/GEN NMR

erre ene a

0 1
  C      -86.400     290.946     -35.098
  O      -86.407     290.262     -33.842
  P      -87.710     289.496     -33.299
  C      -86.404     287.396     -32.604
  O      -87.306     288.413     -32.179
  C      -86.087     286.375     -31.503
  O      -85.223     286.953     -30.485
  C      -87.311     285.808     -30.773
  O      -86.963     284.471     -30.398
  C      -87.392     286.704     -29.548
  O      -88.170     286.148     -28.492
  C      -85.915     286.871     -29.223
  N      -85.646     288.689     -24.444
  C      -85.742     287.431     -24.916
  N      -85.770     287.021     -26.203
  C      -85.642     288.061     -27.043
  C      -85.521     289.400     -26.703
  C      -85.537     289.706     -25.330
  N      -85.487     290.992     -24.840
  N      -85.444     290.190     -27.837
  C      -85.524     289.341     -28.842
  N      -85.640     288.039     -28.411
  O      -88.595     288.953     -34.377
  O      -88.502     290.614     -32.461
  H      -87.594     285.556     -27.973
  H      -89.448     290.579     -32.698
  H      -85.812     286.648     -24.166
  H      -85.527     289.602     -29.891
  H      -85.527     285.990     -28.690
  H      -87.854     287.659     -29.834
  H      -88.223     285.821     -31.377
  H      -85.511     285.561     -31.971
  H      -85.474     287.873     -32.935
  H      -85.596     291.116     -23.839
  H      -85.536     291.764     -25.484
  H      -86.836     286.880     -33.473
  P      -87.805     283.204     -30.914
  C      -85.703     281.832     -31.427
  O      -86.891     281.914     -30.657
  O      -88.339     283.328     -32.305
  O      -88.982     283.040     -29.844
  H      -89.700     282.503     -30.230
  H      -85.948     281.528     -32.448
  H      -85.040     281.089     -30.980
  H      -85.182     282.797     -31.452
  H      -85.437     291.383     -35.261
  H      -87.144     291.715     -35.089
  H      -86.614     290.252     -35.883

 3  4  5  6  7  8  9  10  11  12  22  25  29  30  31  32 0
 6-311+G(2d,p)
 ****
 33  36  37 0
 6-311+G(2d,p)
 ****
 1  2  13  14  15  16  17  18  19  20  21  23  24  26 0
 3-21G
 ****
 27  28  34  35  38  39  40  41  42  43  44  45  46  47  48 0
 3-21G
 ****


