%nproc=1
%NoSave
%Mem=1900MB
#P OB98/GEN NMR

erre ene a

0 1
  C      -74.657      -5.663    -116.684
  O      -73.559      -6.536    -116.864
  H      -74.435      -4.715    -117.181
  H      -74.834      -5.471    -115.623
  H      -75.555      -6.092    -117.138
  P      -73.531      -7.899    -116.014
  C      -73.997      -8.529    -113.553
  O      -73.972      -7.485    -114.524
  C      -73.125      -8.174    -112.346
  O      -73.463      -6.860    -111.859
  C      -73.319      -9.102    -111.157
  O      -72.828     -10.409    -111.359
  C      -72.786      -8.268    -110.001
  O      -71.378      -8.380    -109.824
  C      -73.144      -6.831    -110.453
  N      -74.227      -6.262    -109.660
  C      -73.873      -5.790    -108.402
  O      -72.730      -5.855    -107.948
  N      -74.891      -5.272    -107.651
  C      -76.207      -5.230    -108.010
  O      -77.080      -4.790    -107.273
  C      -76.524      -5.768    -109.342
  C      -75.535      -6.253    -110.097
  O      -72.251      -8.676    -116.072
  O      -74.800      -8.708    -116.553
  H      -71.134      -7.792    -109.082
  H      -74.744      -9.663    -116.307
  H      -74.652      -4.915    -106.739
  H      -77.558      -5.754    -109.659
  H      -75.745      -6.657    -111.083
  H      -72.271      -6.173    -110.348
  H      -73.251      -8.553    -109.055
  H      -74.397      -9.210    -110.984
  H      -72.078      -8.158    -112.669
  H      -73.603      -9.433    -114.028
  H      -75.029      -8.714    -113.239
  P      -73.455     -11.700    -110.656
  C      -73.030     -13.041    -108.472
  O      -72.825     -11.825    -109.182
  O      -73.569     -12.933    -111.493
  O      -74.954     -11.191    -110.340
  H      -75.549     -11.960    -110.430
  H      -72.557     -12.979    -107.514
  H      -72.607     -13.853    -109.026
  H      -74.079     -13.206    -108.342

 6  7  8  9  10  11  12  13  14  15  16  26  31  32  33  34  35 0
 6-311+G(2d,p)
 ****
 36  37 0
 6-311+G(2d,p)
 ****
 1  2  3  4  5  17  18  19  20  21  22  23  24  25 0
 3-21G
 ****
 27  28  29  30  38  39  40  41  42  43  44  45 0
 3-21G
 ****


