%nproc=1
%NoSave
%Mem=1900MB
#P OB98/GEN NMR

erre ene a

0 1
  C      131.332    -897.160     268.614
  O      130.518    -897.300     269.775
  H      130.872    -896.410     267.960
  H      131.393    -898.110     268.083
  H      132.331    -896.820     268.898
  P      131.010    -898.260     270.952
  C      132.204    -897.780     273.194
  O      131.243    -897.320     272.240
  C      132.649    -896.630     274.099
  O      133.354    -895.640     273.292
  C      131.492    -895.910     274.796
  O      131.917    -895.550     276.122
  C      131.294    -894.660     273.967
  O      130.729    -893.580     274.720
  C      132.725    -894.370     273.486
  N      133.297    -889.730     271.580
  C      133.433    -890.160     272.879
  N      133.766    -889.250     273.829
  N      133.277    -891.430     273.230
  C      132.978    -892.240     272.186
  C      132.817    -891.910     270.873
  C      132.974    -890.510     270.503
  O      132.850    -890.050     269.379
  N      132.482    -893.010     270.105
  C      132.440    -894.010     270.989
  N      132.734    -893.590     272.258
  O      132.177    -899.140     270.624
  O      129.711    -899.110     271.345
  H      131.330    -893.400     275.466
  H      129.746    -900.000     270.945
  H      133.438    -888.740     271.388
  H      132.209    -895.050     270.752
  H      133.311    -893.800     274.230
  H      130.631    -894.870     273.122
  H      133.918    -888.280     273.635
  H      130.582    -896.530     274.853
  H      133.899    -889.580     274.784
  H      133.372    -897.020     274.814
  H      133.064    -898.180     272.646
  H      131.769    -898.590     273.795
  P      131.506    -896.510     277.339
  C      133.010    -897.900     278.911
  O      132.771    -896.610     278.330
  O      130.863    -897.790     276.966
  O      130.488    -895.580     278.192
  H      129.829    -896.170     278.630
  H      133.869    -897.851     279.547
  H      133.183    -898.615     278.134
  H      132.157    -898.196     279.485

 6  7  8  9  10  11  12  13  14  15  26  29  33  34 0
 6-311+G(2d,p)
 ****
 36  38  39  40  41 0
 6-311+G(2d,p)
 ****
 1  2  3  4  5  16  17  18  19  20  21  22  23  24  25 0
 3-21G
 ****
 27  28  30  31  32  35  37  42  43  44  45  46  47 0
 3-21G
 ****
 48  49 0
 3-21G
 ****


