%nproc=1
%NoSave
%Mem=1900MB
#P OB98/GEN NMR

erre ene a

0 1
  C      196.049    -183.576     339.482
  O      196.563    -183.206     340.745
  H      195.849    -184.649     339.485
  H      196.790    -183.358     338.708
  H      195.118    -183.042     339.268
  P      196.639    -181.638     341.073
  C      198.912    -181.166     339.919
  O      197.507    -180.954     339.905
  C      199.624    -180.053     339.142
  O      199.349    -178.785     339.788
  C      201.147    -180.222     339.080
  O      201.605    -179.818     337.785
  C      201.657    -179.250     340.130
  O      202.991    -178.818     339.873
  C      200.614    -178.146     340.047
  N      202.629    -174.217     342.478
  C      202.849    -174.680     341.193
  N      203.743    -173.998     340.444
  N      202.239    -175.720     340.687
  C      201.344    -176.280     341.537
  C      201.043    -175.923     342.827
  C      201.743    -174.783     343.386
  O      201.610    -174.339     344.523
  N      200.101    -176.762     343.370
  C      199.839    -177.627     342.409
  N      200.560    -177.371     341.272
  O      197.610    -181.580     342.346
  O      195.331    -180.980     341.354
  H      203.215    -178.144     340.550
  H      197.116    -181.247     343.118
  H      203.134    -173.416     342.820
  H      199.146    -178.452     342.484
  H      200.816    -177.443     339.228
  H      201.638    -179.732     341.114
  H      204.210    -173.161     340.751
  H      201.475    -181.248     339.274
  H      203.889    -174.294     339.490
  H      199.195    -180.001     338.139
  H      199.132    -182.133     339.457
  H      199.268    -181.178     340.956
  P      201.931    -180.981     336.729
  C      204.446    -181.285     337.274
  O      203.147    -181.861     337.307
  O      202.590    -180.189     335.504
  O      200.733    -181.760     336.298
  H      201.966    -180.161     334.753
  H      205.153    -181.975     337.686
  H      204.451    -180.383     337.849
  H      204.713    -181.064     336.262

 6  7  8  9  10  11  12  13  14  15  26  29  33  34 0
 6-311+G(2d,p)
 ****
 36  38  39  40  41 0
 6-311+G(2d,p)
 ****
 1  2  3  4  5  16  17  18  19  20  21  22  23  24  25 0
 3-21G
 ****
 27  28  30  31  32  35  37  42  43  44  45  46  47 0
 3-21G
 ****
 48  49 0
 3-21G
 ****


