%nproc=1
%NoSave
%Mem=1900MB
#P OB98/GEN NMR

erre ene a

0 1
  C     1279.368     362.732    1311.410
  O     1280.663     363.272    1311.602
  H     1279.363     362.103    1310.514
  H     1279.107     362.114    1312.281
  H     1278.624     363.523    1311.310
  P     1281.130     364.442    1310.613
  C     1282.526     362.656    1309.338
  O     1282.509     363.947    1309.940
  C     1283.929     362.324    1308.825
  O     1284.225     363.213    1307.694
  C     1285.061     362.512    1309.868
  O     1286.009     361.454    1309.683
  C     1285.691     363.820    1309.470
  O     1287.049     363.934    1309.874
  C     1285.519     363.805    1307.956
  N     1288.693     367.695    1307.113
  C     1288.924     366.396    1307.423
  N     1288.013     365.408    1307.572
  C     1286.771     365.857    1307.322
  C     1286.388     367.133    1306.983
  C     1287.412     368.098    1306.906
  N     1287.179     369.436    1306.662
  N     1285.001     367.225    1306.841
  C     1284.566     365.997    1307.112
  N     1285.599     365.141    1307.405
  O     1281.599     365.587    1311.628
  O     1280.091     364.929    1309.658
  H     1287.576     363.275    1309.378
  H     1280.842     366.133    1311.867
  H     1289.956     366.116    1307.566
  H     1283.525     365.703    1307.147
  H     1286.278     363.195    1307.447
  H     1285.123     364.652    1309.913
  H     1284.694     362.493    1310.905
  H     1283.931     361.310    1308.435
  H     1281.819     362.646    1308.509
  H     1287.979     370.054    1306.726
  H     1286.228     369.762    1306.613
  H     1282.211     361.904    1310.086
  P     1285.606     359.987    1310.195
  C     1286.595     360.686    1312.514
  O     1286.443     359.659    1311.524
  O     1286.259     359.011    1309.103
  O     1284.113     359.777    1310.309
  H     1285.712     358.227    1308.984
  H     1287.174     360.310    1313.331
  H     1285.631     360.986    1312.868
  H     1287.093     361.528    1312.081

 6  7  8  9  10  11  12  13  14  15  25  28  32  33  34  35 0
 6-311+G(2d,p)
 ****
 36  39  40 0
 6-311+G(2d,p)
 ****
 1  2  3  4  5  16  17  18  19  20  21  22  23  24 0
 3-21G
 ****
 26  27  29  30  31  37  38  41  42  43  44  45  46  47 0
 3-21G
 ****
 48 0
 3-21G
 ****


