%nproc=1
%NoSave
%Mem=1900MB
#P OB98/GEN NMR

erre ene a

0 1
  C      454.640     307.934     220.936
  O      454.259     309.006     220.084
  P      455.362     309.566     219.054
  C      454.262     308.121     217.199
  O      455.457     308.469     217.887
  C      454.429     308.326     215.694
  O      454.269     309.719     215.363
  C      455.792     307.927     215.150
  O      455.891     306.532     214.918
  C      455.806     308.686     213.835
  O      455.032     307.980     212.851
  C      455.112     309.999     214.213
  N      456.320     314.898     213.385
  C      455.374     314.100     212.845
  N      455.125     312.802     213.111
  C      455.998     312.324     214.010
  C      457.036     313.007     214.623
  C      457.182     314.364     214.288
  N      458.129     315.182     214.860
  N      457.718     312.180     215.487
  C      457.097     311.022     215.411
  N      456.045     311.060     214.543
  O      456.732     309.372     219.857
  O      455.158     310.975     218.621
  H      454.742     308.638     212.192
  H      457.411     309.987     219.516
  H      454.728     314.571     212.110
  H      457.368     310.137     215.972
  H      454.459     310.368     213.416
  H      456.817     308.804     213.424
  H      456.599     308.289     215.797
  H      453.633     307.767     215.188
  H      453.444     308.753     217.556
  H      458.049     316.172     214.704
  H      458.629     314.833     215.666
  H      454.017     307.078     217.416
  P      457.367     305.896     214.913
  C      457.027     305.319     217.425
  O      457.843     305.937     216.443
  O      458.247     307.030     214.206
  O      457.463     304.580     214.218
  H      459.033     306.633     213.787
  H      457.629     305.165     218.327
  H      456.656     304.356     217.082
  H      456.188     305.975     217.672
  H      453.815     307.666     221.563
  H      455.466     308.238     221.544
  H      454.926     307.091     220.342

 3  4  5  6  7  8  9  10  11  12  22  25  29  30  31  32 0
 6-311+G(2d,p)
 ****
 33  36  37 0
 6-311+G(2d,p)
 ****
 1  2  13  14  15  16  17  18  19  20  21  23  24  26 0
 3-21G
 ****
 27  28  34  35  38  39  40  41  42  43  44  45  46  47  48 0
 3-21G
 ****


