%nproc=1
%NoSave
%Mem=1900MB
#P OB98/GEN NMR

erre ene a

0 1
  C       -5.000      16.781    -102.891
  O       -6.372      16.816    -102.557
  H       -4.453      17.422    -102.194
  H       -4.853      17.163    -103.904
  H       -4.602      15.765    -102.816
  P       -7.364      15.761    -103.245
  C       -8.412      17.422    -104.917
  O       -7.601      16.268    -104.750
  C       -8.956      17.498    -106.347
  O       -7.908      18.032    -107.214
  C       -9.382      16.134    -106.930
  O      -10.475      16.377    -107.827
  C       -8.130      15.738    -107.690
  O       -8.368      14.677    -108.576
  C       -7.752      17.092    -108.297
  N       -6.402      17.130    -108.845
  C       -6.264      16.955    -110.218
  O       -7.209      16.795    -110.988
  N       -4.977      16.958    -110.692
  C       -3.847      17.110    -109.942
  O       -2.720      17.127    -110.423
  C       -4.057      17.261    -108.493
  C       -5.304      17.265    -108.018
  O       -8.606      15.445    -102.482
  O       -6.450      14.460    -103.448
  H       -6.611      13.831    -102.720
  H       -9.093      14.904    -109.197
  H       -4.859      16.833    -111.686
  H       -3.179      17.361    -107.869
  H       -5.497      17.372    -106.955
  H       -8.465      17.379    -109.078
  H       -7.357      15.398    -106.994
  H       -9.690      15.419    -106.163
  H       -9.786      18.217    -106.373
  H       -7.799      18.305    -104.706
  H       -9.243      17.386    -104.203
  P      -12.016      16.252    -107.392
  C      -11.873      13.677    -107.472
  O      -12.263      14.815    -106.717
  O      -12.975      16.559    -108.497
  O      -12.204      17.283    -106.182
  H      -13.095      17.680    -106.234
  H      -12.089      12.789    -106.916
  H      -10.823      13.725    -107.674
  H      -12.413      13.659    -108.396

 6  7  8  9  10  11  12  13  14  15  16  27  31  32  33  34  35 0
 6-311+G(2d,p)
 ****
 36  37 0
 6-311+G(2d,p)
 ****
 1  2  3  4  5  17  18  19  20  21  22  23  24  25 0
 3-21G
 ****
 26  28  29  30  38  39  40  41  42  43  44  45 0
 3-21G
 ****


