%nproc=1
%NoSave
%Mem=1900MB
#P OB98/GEN NMR

erre ene a

0 1
  C      466.894    -271.812     -23.723
  O      466.911    -273.170     -23.332
  H      465.856    -271.485     -23.818
  H      467.382    -271.711     -24.697
  H      467.400    -271.184     -22.987
  P      468.288    -273.751     -22.754
  C      468.927    -275.448     -20.895
  O      467.899    -274.918     -21.719
  C      468.325    -276.190     -19.703
  O      467.670    -275.220     -18.831
  C      467.278    -277.251     -20.087
  O      467.401    -278.366     -19.195
  C      465.966    -276.549     -19.791
  O      464.900    -277.466     -19.563
  C      466.353    -275.732     -18.565
  N      461.460    -274.848     -17.864
  C      462.160    -276.037     -17.900
  N      461.447    -277.175     -17.793
  N      463.462    -276.104     -18.032
  C      464.058    -274.888     -18.111
  C      463.477    -273.644     -18.092
  C      462.038    -273.581     -17.961
  O      461.358    -272.558     -17.946
  N      464.421    -272.661     -18.261
  C      465.563    -273.313     -18.399
  N      465.392    -274.667     -18.319
  O      468.798    -272.562     -21.807
  O      469.306    -274.120     -23.779
  H      464.058    -276.971     -19.600
  H      469.419    -271.991     -22.297
  H      460.460    -274.851     -17.777
  H      466.524    -272.857     -18.580
  H      466.397    -276.336     -17.651
  H      465.690    -275.899     -20.630
  H      460.448    -277.205     -17.653
  H      467.354    -277.598     -21.122
  H      461.951    -278.054     -17.772
  H      469.139    -276.642     -19.124
  H      469.551    -274.627     -20.526
  H      469.553    -276.123     -21.487
  P      467.797    -279.791     -19.815
  C      469.096    -281.846     -18.886
  O      468.195    -280.780     -18.619
  O      469.201    -279.495     -20.530
  O      466.797    -280.327     -20.784
  H      469.279    -280.037     -21.338
  H      469.258    -282.409     -17.991
  H      470.028    -281.448     -19.230
  H      468.681    -282.484     -19.638

 6  7  8  9  10  11  12  13  14  15  26  29  33  34 0
 6-311+G(2d,p)
 ****
 36  38  39  40  41 0
 6-311+G(2d,p)
 ****
 1  2  3  4  5  16  17  18  19  20  21  22  23  24  25 0
 3-21G
 ****
 27  28  30  31  32  35  37  42  43  44  45  46  47 0
 3-21G
 ****
 48  49 0
 3-21G
 ****


