%nproc=1
%NoSave
%Mem=1900MB
#P OB98/GEN NMR

erre ene a

0 1
  C     -335.512    -891.780    -116.000
  O     -334.190    -892.220    -116.252
  H     -335.820    -891.110    -116.810
  H     -335.556    -891.230    -115.052
  H     -336.199    -892.630    -115.965
  P     -333.557    -893.220    -115.183
  C     -332.093    -894.300    -117.059
  O     -333.048    -894.490    -116.014
  C     -331.028    -895.400    -117.030
  O     -330.230    -895.240    -115.821
  C     -331.608    -896.820    -116.997
  O     -330.661    -897.700    -117.636
  C     -331.631    -897.120    -115.495
  O     -331.833    -898.480    -115.243
  C     -330.302    -896.490    -115.089
  N     -327.227    -896.860    -111.023
  C     -327.024    -897.110    -112.330
  N     -327.876    -896.980    -113.361
  C     -329.074    -896.510    -112.931
  C     -329.422    -896.170    -111.634
  C     -328.439    -896.370    -110.645
  N     -328.652    -896.110    -109.314
  N     -330.723    -895.730    -111.579
  C     -331.149    -895.780    -112.827
  N     -330.183    -896.260    -113.673
  O     -334.845    -893.780    -114.398
  O     -332.547    -892.630    -114.262
  H     -332.700    -898.770    -115.607
  H     -334.975    -893.270    -113.584
  H     -326.029    -897.480    -112.597
  H     -332.138    -895.490    -113.158
  H     -329.454    -897.120    -115.413
  H     -332.477    -896.580    -115.020
  H     -332.587    -896.920    -117.485
  H     -330.346    -895.260    -117.870
  H     -331.626    -893.320    -116.923
  H     -332.625    -894.310    -118.027
  H     -327.898    -896.300    -108.664
  H     -329.552    -895.790    -109.008
  P     -331.100    -898.530    -118.936
  C     -329.251    -897.250    -120.273
  O     -330.585    -897.740    -120.235
  O     -332.680    -898.240    -118.990
  O     -330.822    -900.000    -118.910
  H     -333.126    -898.990    -119.447
  H     -329.080    -896.753    -121.205
  H     -328.568    -898.067    -120.174
  H     -329.101    -896.560    -119.469

 6  7  8  9  10  11  12  13  14  15  25  28  32  33  34  35 0
 6-311+G(2d,p)
 ****
 36  37  40 0
 6-311+G(2d,p)
 ****
 1  2  3  4  5  16  17  18  19  20  21  22  23  24 0
 3-21G
 ****
 26  27  29  30  31  38  39 41  42  43  44  45  46  47  48 0
 3-21G
 ****


