%nproc=1
%NoSave
%Mem=1900MB
#P OB98/GEN NMR

erre ene a

0 1
  C       94.794     158.106      54.843
  O       94.496     157.723      53.520
  H       95.105     159.155      54.838
  H       95.613     157.505      55.246
  H       93.910     158.006      55.478
  P       94.195     156.175      53.205
  C       96.549     155.307      52.675
  O       95.531     155.393      53.663
  C       97.601     154.258      53.045
  O       98.303     154.675      54.246
  C       97.019     152.865      53.310
  O       97.804     151.884      52.624
  C       97.160     152.695      54.815
  O       97.201     151.324      55.203
  C       98.430     153.512      55.086
  N       98.586     153.874      56.491
  C       99.303     152.979      57.291
  O       99.735     151.929      56.812
  N       99.482     153.271      58.618
  C       98.944     154.340      59.119
  N       99.150     154.569      60.446
  C       98.140     155.289      58.324
  C       98.010     155.002      57.028
  O       93.752     155.895      51.808
  O       93.126     155.739      54.316
  H       98.112     150.986      55.048
  H       92.656     154.922      54.016
  H       97.704     156.161      58.790
  H       97.442     155.647      56.365
  H       99.325     152.958      54.772
  H       96.304     153.162      55.317
  H       95.985     152.762      52.992
  H       98.355     154.231      52.246
  H       99.709     153.894      60.956
  H       97.015     156.292      52.564
  H       98.776     155.363      60.945
  H       96.083     155.020      51.725
  P       97.166     151.283      51.278
  C       95.890     149.146      52.004
  O       95.805     150.526      51.672
  O       98.170     150.098      50.896
  O       97.041     152.283      50.175
  H       98.778     150.387      50.191
  H       94.915     148.776      52.243
  H       96.536     149.021      52.848
  H       96.283     148.602      51.171

 6  7  8  9  10  11  12  13  14  15  16  26  30  31  32  33  35 0
 6-311+G(2d,p)
 ****
 37  38 0
 6-311+G(2d,p)
 ****
 1  2  3  4  5  17  18  19  20  21  22  23  24  25 0
 3-21G
 ****
 27  28  29  34  36  39  40  41  42  43  44  45  46 0
 3-21G
 ****


