%nproc=1
%NoSave
%Mem=1900MB
#P OB98/GEN NMR

erre ene a

0 1
  C       22.575     252.934      51.748
  O       21.234     253.346      51.581
  P       19.983     252.442      51.991
  C       19.161     250.989      49.999
  O       20.032     251.092      51.121
  C       18.455     249.628      49.911
  O       19.342     248.595      50.387
  C       17.231     249.606      50.833
  O       16.002     250.145      50.394
  C       17.157     248.177      51.356
  O       16.216     247.378      50.637
  C       18.578     247.647      51.151
  N       19.041     244.533      55.123
  C       18.397     244.317      53.920
  N       17.626     243.210      53.852
  N       18.485     245.129      52.896
  C       19.215     246.241      53.150
  C       19.910     246.554      54.294
  C       19.837     245.633      55.403
  O       20.325     245.828      56.515
  N       20.478     247.801      54.220
  C       20.095     248.261      53.048
  N       19.293     247.364      52.378
  O       18.672     253.141      52.155
  O       20.434     251.919      53.452
  H       16.274     246.467      50.981
  H       19.627     251.842      53.997
  H       18.871     243.912      55.904
  H       20.337     249.239      52.651
  H       18.563     246.718      50.567
  H       16.833     248.166      52.402
  H       17.418     242.648      54.664
  H       17.489     250.214      51.710
  H       17.008     243.112      53.053
  H       18.228     249.370      48.873
  H       19.760     251.174      49.102
  H       18.408     251.779      50.051
  P       15.176     251.321      51.097
  C       13.803     249.487      52.239
  O       14.467     250.727      52.404
  O       13.939     251.580      50.113
  O       15.941     252.584      51.317
  H       13.588     252.480      50.255
  H       13.118     249.333      53.078
  H       14.541     248.677      52.231
  H       13.235     249.470      51.305
  H       23.231     253.706      51.402
  H       22.747     252.041      51.184
  H       22.763     252.743      52.784

 3  4  5  6  7  8  9  10  11  12  23  26  30  31 0
 6-311+G(2d,p)
 ****
 33  35  36  37  38 0
 6-311+G(2d,p)
 ****
 1  2  13  14  15  16  17  18  19  20  21  22  24  25 0
 3-21G
 ****
 27  28  29  32  34  39  40  41  42  43  44  45  46  47  48  49 0
 3-21G
 ****


