%nproc=1
%NoSave
%Mem=1900MB
#P OB98/GEN NMR

erre ene a

0 1
  C      631.420    -128.537     588.223
  O      632.237    -127.750     589.074
  P      631.846    -126.210     589.286
  C      631.227    -124.216     587.719
  O      631.777    -125.529     587.853
  C      632.059    -123.397     586.712
  O      632.085    -124.058     585.424
  C      631.496    -122.003     586.447
  O      631.832    -121.117     587.519
  C      632.147    -121.655     585.124
  O      633.485    -121.144     585.326
  C      632.186    -123.028     584.413
  N      631.168    -123.146     583.371
  C      631.255    -122.260     582.325
  O      632.123    -121.386     582.242
  N      630.296    -122.399     581.357
  C      629.240    -123.272     581.384
  O      628.379    -123.281     580.505
  C      629.188    -124.173     582.535
  C      630.120    -124.082     583.475
  O      633.138    -125.567     589.962
  O      630.619    -126.001     590.111
  H      633.390    -120.273     585.760
  H      632.863    -124.878     590.627
  H      630.349    -121.772     580.569
  H      628.375    -124.883     582.581
  H      630.107    -124.715     584.349
  H      633.173    -123.168     583.943
  H      631.599    -120.882     584.583
  H      630.403    -122.073     586.307
  H      633.091    -123.338     587.095
  H      631.231    -123.726     588.687
  H      630.179    -124.319     587.364
  P      630.933    -119.776     587.649
  C      630.463    -117.803     586.006
  O      631.212    -118.974     586.254
  O      631.733    -118.976     588.782
  O      629.514    -120.058     588.004
  H      632.692    -119.166     588.727
  H      630.272    -117.219     586.910
  H      629.521    -118.045     585.524
  H      631.049    -117.172     585.309
  H      631.805    -129.535     588.182
  H      631.418    -128.115     587.240
  H      630.421    -128.556     588.605

 3  4  5  6  7  8  9  10  11  12  13  23  28  29  30  31  32 0
 6-311+G(2d,p)
 ****
 33  34 0
 6-311+G(2d,p)
 ****
 1  2  14  15  16  17  18  19  20  21  22  24  25  26 0
 3-21G
 ****
 27  35  36  37  38  39  40  41  42  43  44  45 0
 3-21G
 ****


