%nproc=1
%NoSave
%Mem=1900MB
#P OB98/GEN NMR

erre ene a

0 1
  C       17.719      64.660      21.368
  O       17.059      65.369      22.399
  P       16.277      66.723      22.062
  C       17.879      68.232      23.388
  O       16.544      67.754      23.260
  C       17.879      69.679      23.875
  O       17.353      70.553      22.856
  C       17.015      69.919      25.107
  O       17.659      69.450      26.275
  C       16.827      71.430      25.045
  O       17.968      72.106      25.597
  C       16.740      71.675      23.531
  N       12.750      74.851      23.428
  C       13.919      74.895      24.102
  N       14.919      73.987      24.107
  C       14.604      72.938      23.330
  C       13.437      72.736      22.611
  C       12.485      73.768      22.658
  N       11.318      73.763      21.928
  N       13.476      71.516      21.961
  C       14.639      70.992      22.291
  N       15.379      71.843      23.062
  O       14.844      66.556      21.680
  O       17.114      67.355      20.852
  H       17.918      73.038      25.314
  H       16.539      67.436      20.068
  H       14.077      75.780      24.711
  H       14.993      70.017      21.985
  H       17.300      72.568      23.230
  H       15.948      71.768      25.601
  H       16.042      69.431      24.980
  H       18.919      69.974      24.069
  H       18.362      68.170      22.409
  H       10.778      74.614      21.924
  H       11.248      73.129      21.135
  H       18.425      67.595      24.092
  P       17.220      68.053      26.920
  C       16.825      69.008      29.267
  O       17.592      68.120      28.478
  O       17.693      66.832      26.203
  O       15.620      68.133      26.936
  H       15.249      67.239      26.820
  H       17.171      70.032      29.108
  H       16.958      68.746      30.319
  H       15.763      68.936      29.015
  H       18.184      63.787      21.776
  H       18.465      65.287      20.925
  H       17.008      64.370      20.623

 3  4  5  6  7  8  9  10  11  12  22  25  29  30  31  32 0
 6-311+G(2d,p)
 ****
 33  36  37 0
 6-311+G(2d,p)
 ****
 1  2  13  14  15  16  17  18  19  20  21  23  24  26 0
 3-21G
 ****
 27  28  34  35  38  39  40  41  42  43  44  45  46  47  48 0
 3-21G
 ****


