%nproc=1
%NoSave
%Mem=1900MB
#P OB98/GEN NMR

erre ene a

0 1
  C      -19.663    -196.262     -15.943
  O      -19.897    -197.212     -16.963
  H      -18.731    -195.736     -16.161
  H      -19.563    -196.769     -14.980
  H      -20.479    -195.537     -15.901
  P      -21.271    -198.037     -16.884
  C      -23.716    -197.617     -17.636
  O      -22.370    -197.166     -17.668
  C      -24.624    -196.665     -18.414
  O      -24.541    -195.339     -17.812
  C      -24.260    -196.518     -19.900
  O      -25.476    -196.347     -20.639
  C      -23.497    -195.203     -19.933
  O      -23.481    -194.612     -21.230
  C      -24.276    -194.412     -18.884
  N      -21.892    -190.252     -20.408
  C      -22.587    -191.204     -21.129
  N      -22.660    -191.020     -22.465
  N      -23.162    -192.245     -20.589
  C      -23.037    -192.284     -19.240
  C      -22.373    -191.412     -18.412
  C      -21.717    -190.276     -19.027
  O      -21.071    -189.412     -18.442
  N      -22.453    -191.817     -17.102
  C      -23.166    -192.929     -17.141
  N      -23.542    -193.253     -18.415
  O      -21.687    -197.877     -15.347
  O      -21.181    -199.469     -17.293
  H      -24.398    -194.350     -21.453
  H      -21.357    -198.633     -14.827
  H      -21.455    -189.478     -20.875
  H      -23.431    -193.534     -16.285
  H      -25.237    -194.046     -19.266
  H      -22.459    -195.360     -19.615
  H      -22.282    -190.218     -22.945
  H      -23.690    -197.357     -20.311
  H      -23.203    -191.684     -23.006
  H      -25.660    -196.999     -18.297
  H      -24.051    -197.662     -16.594
  H      -23.770    -198.621     -18.070
  P      -25.865    -197.464     -21.718
  C      -26.472    -199.992     -21.653
  O      -26.321    -198.782     -20.927
  O      -24.440    -197.888     -22.320
  O      -26.795    -196.990     -22.785
  H      -24.550    -198.207     -23.233
  H      -26.778    -200.772     -20.987
  H      -25.539    -200.255     -22.105
  H      -27.213    -199.861     -22.414

 6  7  8  9  10  11  12  13  14  15  26  29  33  34 0
 6-311+G(2d,p)
 ****
 36  38  39  40  41 0
 6-311+G(2d,p)
 ****
 1  2  3  4  5  16  17  18  19  20  21  22  23  24  25 0
 3-21G
 ****
 27  28  30  31  32  35  37  42  43  44  45  46  47 0
 3-21G
 ****
 48  49 0
 3-21G
 ****


