%nproc=1
%NoSave
%Mem=1900MB
#P OB98/GEN NMR

erre ene a

0 1
  C      452.189     -38.491    -150.851
  O      452.549     -37.163    -150.535
  H      452.961     -38.921    -151.489
  H      451.239     -38.503    -151.393
  H      452.109     -39.091    -149.939
  P      451.554     -36.339    -149.573
  C      453.496     -34.782    -148.812
  O      452.219     -34.880    -149.433
  C      454.060     -33.366    -148.979
  O      454.810     -33.303    -150.215
  C      452.982     -32.279    -149.021
  O      453.411     -31.159    -148.236
  C      452.891     -31.898    -150.491
  O      452.427     -30.570    -150.675
  C      454.328     -32.171    -150.969
  N      454.376     -32.439    -152.416
  C      454.036     -31.378    -153.256
  O      453.702     -30.284    -152.790
  N      454.030     -31.593    -154.614
  C      454.278     -32.776    -155.088
  N      454.227     -32.930    -156.442
  C      454.590     -33.938    -154.229
  C      454.623     -33.699    -152.916
  O      451.803     -37.011    -148.143
  O      450.120     -36.333    -149.997
  H      452.395     -30.385    -151.637
  H      451.108     -36.747    -147.491
  H      454.777     -34.909    -154.666
  H      454.849     -34.492    -152.206
  H      454.976     -31.314    -150.756
  H      452.197     -32.578    -150.995
  H      452.020     -32.623    -148.655
  H      454.776     -33.181    -148.169
  H      453.998     -32.115    -156.989
  H      454.174     -35.511    -149.273
  H      454.378     -33.810    -156.908
  H      453.396     -35.004    -147.746
  P      452.236     -30.300    -147.550
  C      453.467     -30.056    -145.284
  O      452.900     -29.392    -146.401
  O      451.389     -31.393    -146.737
  O      451.388     -29.544    -148.537
  H      450.598     -31.658    -147.242
  H      453.869     -29.333    -144.605
  H      454.249     -30.707    -145.615
  H      452.711     -30.629    -144.788

 6  7  8  9  10  11  12  13  14  15  16  26  30  31  32  33  35 0
 6-311+G(2d,p)
 ****
 37  38 0
 6-311+G(2d,p)
 ****
 1  2  3  4  5  17  18  19  20  21  22  23  24  25 0
 3-21G
 ****
 27  28  29  34  36  39  40  41  42  43  44  45  46 0
 3-21G
 ****


