%nproc=1
%NoSave
%Mem=1900MB
#P OB98/GEN NMR

erre ene a

0 1
  C      244.026    -478.171    -133.938
  O      243.416    -476.872    -133.885
  P      241.814    -476.759    -133.797
  C      240.085    -474.808    -133.553
  O      241.400    -475.214    -133.911
  C      239.848    -473.353    -133.971
  O      240.540    -472.453    -133.068
  C      240.371    -473.002    -135.357
  O      239.520    -473.485    -136.384
  C      240.428    -471.482    -135.280
  O      239.135    -470.906    -135.544
  C      240.837    -471.251    -133.813
  N      242.239    -470.872    -133.667
  C      242.572    -469.571    -134.033
  O      241.759    -468.779    -134.506
  N      243.884    -469.221    -133.864
  C      244.890    -470.047    -133.441
  O      246.049    -469.676    -133.330
  C      244.494    -471.433    -133.148
  C      243.209    -471.779    -133.277
  O      241.543    -477.061    -132.245
  O      241.049    -477.709    -134.663
  H      239.206    -469.953    -135.344
  H      240.656    -477.451    -132.139
  H      244.139    -468.274    -134.091
  H      245.265    -472.125    -132.834
  H      242.901    -472.798    -133.067
  H      240.216    -470.461    -133.365
  H      241.124    -471.049    -136.007
  H      241.386    -473.390    -135.482
  H      238.769    -473.148    -133.900
  H      239.963    -474.900    -132.471
  H      239.365    -475.470    -134.048
  P      240.031    -474.770    -137.200
  C      238.452    -476.393    -138.509
  O      238.885    -475.069    -138.278
  O      239.870    -475.920    -136.092
  O      241.417    -474.612    -137.733
  H      239.112    -475.759    -135.504
  H      238.493    -476.991    -137.594
  H      239.082    -476.855    -139.277
  H      237.414    -476.366    -138.867
  H      245.089    -478.064    -133.994
  H      243.675    -478.695    -134.802
  H      243.769    -478.722    -133.058

 3  4  5  6  7  8  9  10  11  12  13  23  28  29  30  31  32 0
 6-311+G(2d,p)
 ****
 33  34 0
 6-311+G(2d,p)
 ****
 1  2  14  15  16  17  18  19  20  21  22  24  25  26 0
 3-21G
 ****
 27  35  36  37  38  39  40  41  42  43  44  45 0
 3-21G
 ****


