%nproc=1
%NoSave
%Mem=1900MB
#P OB98/GEN NMR

erre ene a

0 1
  C     -212.691     534.919    -503.617
  O     -213.826     535.430    -502.943
  H     -213.017     534.130    -504.303
  H     -211.982     534.498    -502.900
  H     -212.210     535.715    -504.192
  P     -213.545     536.531    -501.808
  C     -212.005     536.505    -499.702
  O     -212.421     535.847    -500.886
  C     -211.639     535.471    -498.636
  O     -212.810     534.742    -498.216
  C     -210.650     534.415    -499.111
  O     -209.309     534.876    -499.132
  C     -210.860     533.347    -498.055
  O     -210.207     533.743    -496.834
  C     -212.400     533.385    -497.898
  N     -213.087     532.423    -498.763
  C     -212.917     531.066    -498.463
  O     -212.204     530.721    -497.521
  N     -213.523     530.128    -499.261
  C     -214.253     530.503    -500.269
  N     -214.818     529.532    -501.028
  C     -214.475     531.925    -500.611
  C     -213.876     532.811    -499.831
  O     -214.851     536.458    -500.878
  O     -213.218     537.902    -502.297
  H     -210.631     534.576    -496.547
  H     -214.720     537.016    -500.072
  H     -215.085     532.191    -501.464
  H     -213.990     533.878    -500.020
  H     -212.691     533.183    -496.860
  H     -210.456     532.376    -498.340
  H     -210.934     534.002    -500.086
  H     -211.254     536.012    -497.757
  H     -214.599     528.569    -500.810
  H     -212.828     537.134    -499.345
  H     -215.244     529.724    -501.929
  H     -211.135     537.138    -499.909
  P     -208.228     534.001    -499.935
  C     -206.904     531.827    -499.416
  O     -207.622     532.942    -498.895
  O     -207.020     535.034    -500.150
  O     -208.711     533.428    -501.227
  H     -206.617     534.920    -501.034
  H     -206.563     531.213    -498.608
  H     -206.063     532.176    -499.979
  H     -207.546     531.255    -500.052

 6  7  8  9  10  11  12  13  14  15  16  26  30  31  32  33  35 0
 6-311+G(2d,p)
 ****
 37  38 0
 6-311+G(2d,p)
 ****
 1  2  3  4  5  17  18  19  20  21  22  23  24  25 0
 3-21G
 ****
 27  28  29  34  36  39  40  41  42  43  44  45  46 0
 3-21G
 ****


