%nproc=1
%NoSave
%Mem=1900MB
#P OB98/GEN NMR

erre ene a

0 1
  C      143.973      95.770     758.384
  O      143.117      94.773     757.821
  P      142.049      95.245     756.731
  C      140.047      94.999     758.368
  O      140.808      95.864     757.551
  C      138.562      95.287     758.216
  O      138.276      96.690     758.469
  C      138.011      95.023     756.814
  O      137.718      93.653     756.597
  C      136.720      95.840     756.843
  O      135.693      95.109     757.535
  C      137.146      97.072     757.664
  N      135.332     101.029     755.048
  C      134.700     100.179     755.947
  N      133.373     100.394     756.125
  N      135.290      99.229     756.613
  C      136.621      99.138     756.323
  C      137.371      99.904     755.465
  C      136.684     100.952     754.731
  O      137.187     101.692     753.881
  N      138.682      99.512     755.446
  C      138.741      98.503     756.294
  N      137.489      98.208     756.822
  O      141.463      93.868     756.158
  O      142.600      96.111     755.640
  H      135.524      94.292     757.019
  H      141.006      94.020     755.306
  H      134.831     101.742     754.562
  H      139.628      97.955     756.553
  H      136.347      97.401     758.342
  H      136.332      96.072     755.854
  H      132.833     101.071     755.600
  H      138.676      95.428     756.035
  H      132.854      99.754     756.726
  H      138.005      94.699     758.964
  H      140.344      95.135     759.413
  H      140.256      93.954     758.098
  P      138.006      93.075     755.120
  C      135.996      94.170     753.889
  O      137.388      94.157     754.124
  O      136.997      91.835     755.015
  O      139.429      92.680     754.892
  H      137.341      91.183     754.397
  H      135.712      95.105     753.412
  H      135.439      94.080     754.830
  H      135.722      93.333     753.229
  H      144.632      95.315     759.094
  H      143.380      96.514     758.874
  H      144.548      96.227     757.606

 3  4  5  6  7  8  9  10  11  12  23  26  30  31 0
 6-311+G(2d,p)
 ****
 33  35  36  37  38 0
 6-311+G(2d,p)
 ****
 1  2  13  14  15  16  17  18  19  20  21  22  24  25 0
 3-21G
 ****
 27  28  29  32  34  39  40  41  42  43  44  45  46  47  48  49 0
 3-21G
 ****


