%nproc=1
%NoSave
%Mem=1900MB
#P OB98/GEN NMR

erre ene a

0 1
  C     -137.892     485.784    1028.520
  O     -137.617     487.037    1027.934
  P     -138.446     488.298    1028.494
  C     -136.921     489.932    1027.138
  O     -138.240     489.488    1027.434
  C     -136.985     490.932    1025.973
  O     -137.980     491.934    1026.221
  C     -135.675     491.681    1025.734
  O     -134.777     490.888    1024.974
  C     -136.160     492.928    1025.009
  O     -136.386     492.657    1023.608
  C     -137.493     493.218    1025.729
  N     -135.812     497.805    1027.065
  C     -135.603     497.070    1025.886
  N     -134.873     497.681    1024.929
  N     -136.068     495.859    1025.687
  C     -136.760     495.372    1026.742
  C     -137.029     495.996    1027.962
  C     -136.551     497.351    1028.138
  O     -136.792     498.059    1029.110
  N     -137.735     495.187    1028.781
  C     -137.949     494.073    1028.066
  N     -137.386     494.165    1026.821
  O     -137.603     488.768    1029.767
  O     -139.884     488.012    1028.828
  H     -135.572     492.305    1023.215
  H     -137.991     488.405    1030.591
  H     -135.444     498.732    1027.152
  H     -138.495     493.214    1028.396
  H     -138.253     493.614    1025.037
  H     -135.440     493.750    1025.047
  H     -134.480     498.598    1025.004
  H     -135.206     491.967    1026.683
  H     -134.705     497.167    1024.077
  H     -137.272     490.379    1025.054
  H     -136.326     489.064    1026.827
  H     -136.479     490.385    1028.012
  P     -133.205     491.073    1025.248
  C     -132.707     488.680    1024.396
  O     -132.410     490.050    1024.298
  O     -133.008     490.471    1026.718
  O     -132.731     492.491    1025.192
  H     -132.327     490.983    1027.203
  H     -132.548     488.196    1023.417
  H     -133.749     488.490    1024.720
  H     -132.030     488.218    1025.124
  H     -137.280     485.035    1028.063
  H     -138.924     485.540    1028.373
  H     -137.681     485.826    1029.568

 3  4  5  6  7  8  9  10  11  12  23  26  30  31 0
 6-311+G(2d,p)
 ****
 33  35  36  37  38 0
 6-311+G(2d,p)
 ****
 1  2  13  14  15  16  17  18  19  20  21  22  24  25 0
 3-21G
 ****
 27  28  29  32  34  39  40  41  42  43  44  45  46  47  48  49 0
 3-21G
 ****


