%nproc=1
%NoSave
%Mem=1900MB
#P OB98/GEN NMR

erre ene a

0 1
  C     1152.791    -581.060     209.012
  O     1152.426    -582.396     209.283
  H     1153.367    -580.683     209.865
  H     1151.901    -580.438     208.898
  H     1153.408    -581.002     208.117
  P     1151.532    -583.194     208.218
  C     1152.720    -585.474     208.178
  O     1152.541    -584.228     207.507
  C     1154.194    -585.737     208.472
  O     1154.687    -584.737     209.404
  C     1154.464    -587.114     209.096
  O     1155.564    -587.734     208.424
  C     1154.855    -586.796     210.532
  O     1155.659    -587.803     211.124
  C     1155.532    -585.426     210.339
  N     1155.669    -584.712     211.600
  C     1156.781    -585.050     212.388
  O     1157.579    -585.910     211.996
  N     1156.930    -584.459     213.605
  C     1156.035    -583.634     214.037
  N     1156.235    -583.095     215.272
  C     1154.833    -583.261     213.256
  C     1154.719    -583.832     212.059
  O     1150.754    -582.331     207.281
  O     1150.602    -584.158     209.096
  H     1156.097    -587.422     211.924
  H     1149.813    -584.409     208.569
  H     1154.110    -582.568     213.665
  H     1153.871    -583.623     211.413
  H     1156.526    -585.534     209.886
  H     1153.955    -586.677     211.133
  H     1153.601    -587.784     209.057
  H     1154.761    -585.601     207.546
  H     1157.064    -583.379     215.777
  H     1152.303    -586.273     207.552
  H     1155.587    -582.460     215.723
  H     1152.162    -585.436     209.125
  P     1155.191    -588.766     207.246
  C     1156.914    -588.239     205.377
  O     1155.588    -588.078     205.854
  O     1153.592    -588.749     207.244
  O     1155.736    -590.133     207.461
  H     1153.259    -589.613     207.580
  H     1157.022    -587.726     204.445
  H     1157.119    -589.280     205.237
  H     1157.601    -587.833     206.090

 6  7  8  9  10  11  12  13  14  15  16  26  30  31  32  33  35 0
 6-311+G(2d,p)
 ****
 37  38 0
 6-311+G(2d,p)
 ****
 1  2  3  4  5  17  18  19  20  21  22  23  24  25 0
 3-21G
 ****
 27  28  29  34  36  39  40  41  42  43  44  45  46 0
 3-21G
 ****


