%nproc=1
%NoSave
%Mem=1900MB
#P OB98/GEN NMR

erre ene a

0 1
  C       21.438     -76.955     -10.252
  O       21.993     -78.065     -10.938
  P       22.936     -77.789     -12.203
  C       21.819     -79.478     -13.834
  O       22.971     -79.128     -13.084
  C       21.914     -80.927     -14.314
  O       23.075     -81.072     -15.189
  C       22.064     -81.953     -13.182
  O       21.384     -83.151     -13.589
  C       23.560     -82.200     -13.160
  O       23.918     -83.414     -12.516
  C       23.864     -82.159     -14.662
  N       25.284     -81.986     -14.951
  C       25.907     -82.968     -15.717
  O       25.335     -83.965     -16.157
  N       27.253     -82.804     -15.916
  C       28.034     -81.834     -15.364
  O       29.256     -81.810     -15.489
  C       27.326     -80.823     -14.565
  C       26.005     -80.942     -14.397
  O       24.398     -77.718     -11.560
  O       22.601     -76.554     -12.970
  H       23.438     -84.135     -12.962
  H       24.677     -76.789     -11.449
  H       27.715     -83.499     -16.479
  H       27.914     -80.026     -14.129
  H       25.461     -80.224     -13.797
  H       23.504     -83.078     -15.144
  H       24.058     -81.381     -12.630
  H       21.677     -81.604     -12.219
  H       21.026     -81.157     -14.920
  H       21.741     -78.817     -14.699
  H       20.922     -79.333     -13.222
  P       20.320     -83.793     -12.568
  C       21.882     -85.740     -11.776
  O       20.694     -85.346     -12.435
  O       19.000     -83.792     -13.477
  O       20.172     -83.029     -11.295
  H       19.171     -84.084     -14.389
  H       22.123     -85.068     -10.947
  H       22.708     -85.739     -12.491
  H       21.750     -86.750     -11.385
  H       20.837     -77.303      -9.438
  H       20.831     -76.386     -10.926
  H       22.227     -76.338      -9.875

 3  4  5  6  7  8  9  10  11  12  13  23  28  29  30  31  32 0
 6-311+G(2d,p)
 ****
 33  34 0
 6-311+G(2d,p)
 ****
 1  2  14  15  16  17  18  19  20  21  22  24  25  26 0
 3-21G
 ****
 27  35  36  37  38  39  40  41  42  43  44  45 0
 3-21G
 ****


