%nproc=1
%NoSave
%Mem=1900MB
#P OB98/GEN NMR

erre ene a

0 1
  C      -52.090      23.679     123.748
  O      -52.936      22.621     124.132
  P      -53.459      22.399     125.622
  C      -51.369      20.993     126.321
  O      -52.196      22.123     126.570
  C      -51.580      19.910     127.389
  O      -51.277      20.479     128.689
  C      -53.044      19.442     127.436
  O      -53.199      18.037     127.593
  C      -53.652      20.335     128.509
  O      -54.854      19.822     129.062
  C      -52.484      20.494     129.478
  N      -55.187      23.474     132.581
  C      -55.451      22.183     132.167
  N      -56.675      21.700     132.474
  N      -54.605      21.457     131.485
  C      -53.470      22.113     131.155
  C      -53.097      23.389     131.510
  C      -54.026      24.170     132.291
  O      -53.882      25.357     132.583
  N      -51.904      23.748     130.939
  C      -51.569      22.703     130.210
  N      -52.506      21.698     130.283
  O      -54.664      21.532     125.787
  O      -53.875      23.901     126.047
  H      -55.131      20.427     129.776
  H      -54.649      23.826     126.642
  H      -55.915      24.013     133.037
  H      -50.683      22.630     129.590
  H      -52.434      19.661     130.183
  H      -53.902      21.292     128.038
  H      -57.397      22.287     132.867
  H      -53.542      19.645     126.482
  H      -56.982      20.870     131.975
  H      -50.880      19.086     127.212
  H      -50.335      21.356     126.352
  H      -51.554      20.592     125.322
  P      -54.323      17.081     126.985
  C      -55.503      17.197     129.261
  O      -55.658      17.243     127.855
  O      -53.844      15.598     127.346
  O      -54.526      17.213     125.511
  H      -54.032      15.003     126.595
  H      -56.483      17.042     129.717
  H      -55.092      18.146     129.615
  H      -54.840      16.376     129.552
  H      -51.883      23.608     122.701
  H      -51.173      23.620     124.297
  H      -52.570      24.613     123.955

 3  4  5  6  7  8  9  10  11  12  23  26  30  31 0
 6-311+G(2d,p)
 ****
 33  35  36  37  38 0
 6-311+G(2d,p)
 ****
 1  2  13  14  15  16  17  18  19  20  21  22  24  25 0
 3-21G
 ****
 27  28  29  32  34  39  40  41  42  43  44  45  46  47  48  49 0
 3-21G
 ****


