%nproc=1
%NoSave
%Mem=1900MB
#P OB98/GEN NMR

erre ene a

0 1
  C      177.164    -526.352    -302.856
  O      178.095    -527.311    -303.318
  H      177.564    -525.882    -301.954
  H      176.213    -526.831    -302.609
  H      177.007    -525.579    -303.613
  P      177.724    -528.176    -304.614
  C      177.505    -530.743    -304.793
  O      177.149    -529.573    -304.071
  C      177.318    -531.982    -303.916
  O      178.232    -531.950    -302.804
  C      175.919    -532.127    -303.321
  O      175.029    -532.692    -304.271
  C      176.205    -533.066    -302.161
  O      176.369    -534.410    -302.657
  C      177.555    -532.528    -301.650
  N      178.756    -531.333    -296.865
  C      178.911    -532.525    -297.544
  N      179.433    -533.555    -296.843
  N      178.576    -532.699    -298.798
  C      178.002    -531.604    -299.354
  C      177.777    -530.376    -298.778
  C      178.216    -530.177    -297.410
  O      178.117    -529.128    -296.778
  N      177.088    -529.539    -299.623
  C      176.943    -530.248    -300.727
  N      177.472    -531.516    -300.611
  O      178.808    -528.328    -305.638
  O      176.428    -527.453    -305.212
  H      176.497    -534.988    -301.882
  H      176.673    -526.787    -305.879
  H      179.024    -531.260    -295.897
  H      176.469    -529.896    -301.633
  H      178.194    -533.329    -301.263
  H      175.404    -533.086    -301.423
  H      179.570    -533.525    -295.842
  H      175.549    -531.175    -302.927
  H      179.497    -534.450    -297.307
  H      177.578    -532.862    -304.521
  H      178.553    -530.641    -305.094
  H      176.887    -530.836    -305.692
  P      173.628    -531.989    -304.632
  C      171.256    -532.059    -303.597
  O      172.614    -532.450    -303.477
  O      173.144    -532.229    -306.022
  O      173.858    -530.445    -304.274
  H      174.275    -529.940    -305.013
  H      170.702    -532.434    -302.762
  H      170.849    -532.457    -304.503
  H      171.193    -530.991    -303.616

 6  7  8  9  10  11  12  13  14  15  26  29  33  34 0
 6-311+G(2d,p)
 ****
 36  38  39  40  41 0
 6-311+G(2d,p)
 ****
 1  2  3  4  5  16  17  18  19  20  21  22  23  24  25 0
 3-21G
 ****
 27  28  30  31  32  35  37  42  43  44  45  46  47 0
 3-21G
 ****
 48  49 0
 3-21G
 ****


