%nproc=1
%NoSave
%Mem=1900MB
#P OB98/GEN NMR

erre ene a

0 1
  C      158.728      84.519    -159.009
  O      160.141      84.684    -159.206
  P      160.748      86.152    -158.985
  C      162.777      85.913    -160.612
  O      162.325      86.096    -159.271
  C      163.981      84.969    -160.637
  O      163.570      83.600    -160.486
  C      164.752      85.017    -161.952
  O      165.579      86.164    -162.011
  C      165.522      83.703    -161.913
  O      166.802      83.858    -161.283
  C      164.603      82.779    -161.073
  N      164.035      81.692    -161.854
  C      164.901      80.625    -162.142
  O      166.074      80.663    -161.757
  N      164.423      79.570    -162.878
  C      163.199      79.582    -163.304
  N      162.784      78.510    -164.032
  C      162.260      80.699    -163.049
  C      162.739      81.710    -162.328
  O      160.663      86.351    -157.399
  O      160.011      87.228    -159.717
  H      167.165      82.954    -161.190
  H      160.507      87.289    -157.186
  H      161.249      80.670    -163.436
  H      162.121      82.575    -162.093
  H      165.164      82.339    -160.240
  H      165.709      83.319    -162.926
  H      164.046      85.009    -162.797
  H      164.649      85.229    -159.801
  H      163.456      77.768    -164.195
  H      163.048      86.876    -161.052
  H      161.850      78.421    -164.424
  H      161.949      85.515    -161.209
  P      165.221      87.293    -163.080
  C      167.469      86.944    -164.285
  O      166.636      87.856    -163.589
  O      164.703      88.496    -162.142
  O      164.224      86.948    -164.139
  H      164.359      89.222    -162.692
  H      168.292      87.500    -164.743
  H      166.904      86.436    -165.065
  H      167.889      86.217    -163.578
  H      158.460      83.499    -159.188
  H      158.197      85.152    -159.689
  H      158.475      84.783    -158.004

 3  4  5  6  7  8  9  10  11  12  13  21  23  27  28  29  30  32 0
 6-311+G(2d,p)
 ****
 34  35 0
 6-311+G(2d,p)
 ****
 1  2  14  15  16  17  18  19  20  22  24  25  26 0
 3-21G
 ****
 31  33  36  37  38  39  40  41  42  43  44  45  46 0
 3-21G
 ****


