%nproc=1
%NoSave
%Mem=1900MB
#P OB98/GEN NMR

erre ene a

0 1
  C      -10.587    -139.570     132.147
  O       -9.344    -139.182     131.546
  P       -8.838    -140.003     130.265
  C       -6.261    -140.329     130.439
  O       -7.334    -139.552     129.930
  C       -4.942    -139.557     130.333
  O       -4.863    -138.499     131.309
  C       -3.709    -140.416     130.570
  O       -3.340    -141.130     129.400
  C       -2.667    -139.355     130.890
  O       -2.189    -138.755     129.669
  C       -3.478    -138.337     131.698
  N       -1.385    -136.519     136.005
  C       -1.266    -136.137     134.714
  N       -1.841    -136.682     133.621
  C       -2.621    -137.720     133.962
  C       -2.839    -138.225     135.235
  C       -2.180    -137.577     136.291
  N       -2.305    -137.970     137.605
  N       -3.694    -139.306     135.193
  C       -4.001    -139.442     133.918
  N       -3.370    -138.513     133.135
  O       -9.688    -139.364     129.069
  O       -9.055    -141.477     130.367
  H       -1.604    -138.017     129.925
  H       -9.893    -140.051     128.407
  H       -0.624    -135.280     134.535
  H       -4.670    -140.191     133.518
  H       -3.191    -137.303     131.474
  H       -1.794    -139.765     131.404
  H       -3.852    -141.078     131.433
  H       -4.893    -139.108     129.332
  H       -6.187    -141.273     129.892
  H       -1.823    -137.439     138.310
  H       -2.914    -138.745     137.826
  H       -6.476    -140.594     131.480
  P       -3.100    -142.710     129.549
  C       -0.538    -142.655     129.120
  O       -1.815    -143.040     128.651
  O       -4.323    -143.339     128.729
  O       -3.060    -143.197     130.959
  H       -4.571    -144.203     129.110
  H        0.222    -143.209     128.563
  H       -0.423    -142.877     130.185
  H       -0.390    -141.583     128.952
  H      -10.791    -138.936     132.984
  H      -10.522    -140.586     132.476
  H      -11.375    -139.477     131.429

 3  4  5  6  7  8  9  10  11  12  22  25  29  30  31  32 0
 6-311+G(2d,p)
 ****
 33  36  37 0
 6-311+G(2d,p)
 ****
 1  2  13  14  15  16  17  18  19  20  21  23  24  26 0
 3-21G
 ****
 27  28  34  35  38  39  40  41  42  43  44  45  46  47  48 0
 3-21G
 ****


