%nproc=1
%NoSave
%Mem=1900MB
#P OB98/GEN NMR

erre ene a

0 1
  C      -66.932     450.417      47.938
  O      -67.650     449.235      48.210
  H      -66.585     450.842      48.883
  H      -67.590     451.141      47.449
  H      -66.065     450.223      47.302
  P      -67.874     448.182      47.028
  C      -70.415     448.640      47.042
  O      -69.230     448.575      46.259
  C      -71.195     449.928      46.782
  O      -70.337     451.069      47.005
  C      -71.697     450.030      45.339
  O      -72.954     449.414      45.109
  C      -71.785     451.541      45.140
  O      -73.062     452.049      45.555
  C      -70.672     452.081      46.047
  N      -67.729     455.908      44.362
  C      -68.977     455.970      44.952
  N      -69.515     457.202      45.070
  N      -69.630     454.916      45.364
  C      -69.009     453.748      45.089
  C      -67.782     453.561      44.491
  C      -67.031     454.735      44.104
  O      -65.919     454.734      43.592
  N      -67.495     452.225      44.337
  C      -68.582     451.612      44.762
  N      -69.495     452.491      45.302
  O      -68.294     446.839      47.800
  O      -66.687     447.937      46.147
  H      -73.070     453.013      45.393
  H      -67.987     446.064      47.295
  H      -67.262     456.753      44.091
  H      -68.742     450.542      44.743
  H      -71.009     452.959      46.612
  H      -71.669     451.801      44.085
  H      -69.094     458.036      44.694
  H      -70.953     449.637      44.641
  H      -70.502     457.275      45.321
  H      -72.021     450.004      47.499
  H      -70.101     448.598      48.085
  H      -71.045     447.766      46.852
  P      -73.077     448.130      44.165
  C      -75.031     449.272      42.834
  O      -73.810     448.563      42.816
  O      -74.175     447.237      44.912
  O      -71.805     447.379      43.933
  H      -73.746     446.538      45.441
  H      -75.348     449.462      41.830
  H      -74.896     450.201      43.347
  H      -75.774     448.690      43.339

 6  7  8  9  10  11  12  13  14  15  26  29  33  34 0
 6-311+G(2d,p)
 ****
 36  38  39  40  41 0
 6-311+G(2d,p)
 ****
 1  2  3  4  5  16  17  18  19  20  21  22  23  24  25 0
 3-21G
 ****
 27  28  30  31  32  35  37  42  43  44  45  46  47 0
 3-21G
 ****
 48  49 0
 3-21G
 ****


