%nproc=1
%NoSave
%Mem=1900MB
#P OB98/GEN NMR

erre ene a

0 1
  C     -898.350    -284.497    -856.460
  O     -898.460    -285.525    -857.423
  H     -898.290    -284.951    -855.468
  H     -899.230    -283.838    -856.493
  H     -897.440    -283.909    -856.631
  P     -898.680    -285.110    -858.958
  C     -896.490    -285.798    -860.142
  O     -897.240    -284.746    -859.547
  C     -895.200    -286.058    -859.348
  O     -895.550    -286.551    -858.027
  C     -894.280    -287.115    -860.006
  O     -892.940    -286.780    -859.648
  C     -894.730    -288.381    -859.296
  O     -893.810    -289.433    -859.480
  C     -894.900    -287.846    -857.866
  N     -895.690    -288.745    -857.038
  C     -894.990    -289.760    -856.381
  O     -893.770    -289.846    -856.533
  N     -895.680    -290.639    -855.589
  C     -896.970    -290.563    -855.521
  N     -897.600    -291.489    -854.733
  C     -897.770    -289.557    -856.249
  C     -897.070    -288.678    -856.976
  O     -899.740    -284.085    -859.208
  O     -899.040    -286.494    -859.682
  H     -892.890    -289.126    -859.303
  H     -900.000    -286.534    -859.876
  H     -898.840    -289.552    -856.171
  H     -897.570    -287.904    -857.554
  H     -893.940    -287.679    -857.387
  H     -895.690    -288.730    -859.696
  H     -894.380    -287.160    -861.090
  H     -894.670    -285.111    -859.209
  H     -897.020    -292.167    -854.268
  H     -896.250    -285.493    -861.170
  H     -898.600    -291.534    -854.623
  H     -897.090    -286.714    -860.180
  P     -892.270    -285.364    -860.019
  C     -891.220    -284.365    -857.880
  O     -892.360    -284.397    -858.747
  O     -892.770    -284.769    -861.284
  O     -890.700    -285.679    -860.148
  H     -890.300    -285.063    -860.789
  H     -891.404    -283.686    -857.074
  H     -890.362    -284.041    -858.431
  H     -891.043    -285.345    -857.488

 6  7  8  9  10  11  12  13  14  15  16  26  30  31  32  33  35 0
 6-311+G(2d,p)
 ****
 37  38 0
 6-311+G(2d,p)
 ****
 1  2  3  4  5  17  18  19  20  21  22  23  24  25 0
 3-21G
 ****
 27  28  29  34  36  39  40  41  42  43  44  45  46 0
 3-21G
 ****


