%nproc=1
%NoSave
%Mem=1900MB
#P OB98/GEN NMR

erre ene a

0 1
  C      282.739    -232.263     197.108
  O      283.611    -233.345     196.844
  H      283.073    -231.396     196.533
  H      282.769    -232.014     198.173
  H      281.718    -232.514     196.810
  P      283.195    -234.772     197.454
  C      283.398    -236.468     195.458
  O      283.995    -235.861     196.590
  C      284.466    -236.908     194.455
  O      285.182    -235.734     193.996
  C      285.489    -237.884     195.036
  O      285.863    -238.809     194.013
  C      286.676    -236.992     195.365
  O      287.897    -237.723     195.422
  C      286.589    -235.951     194.238
  N      287.276    -234.706     194.576
  C      288.268    -234.277     193.690
  O      288.537    -234.942     192.688
  N      288.962    -233.130     193.975
  C      288.733    -232.498     195.083
  N      289.472    -231.381     195.320
  C      287.728    -232.939     196.070
  C      287.037    -234.033     195.751
  O      281.684    -234.917     196.943
  O      283.360    -234.884     198.932
  H      287.826    -238.394     196.136
  H      281.565    -234.666     196.013
  H      287.581    -232.385     196.985
  H      286.274    -234.422     196.413
  H      287.029    -236.348     193.314
  H      286.526    -236.513     196.338
  H      285.112    -238.426     195.907
  H      283.966    -237.336     193.579
  H      290.166    -231.128     194.629
  H      282.708    -235.770     194.972
  H      289.418    -230.844     196.173
  H      282.820    -237.331     195.802
  P      285.354    -240.324     194.095
  C      284.903    -240.641     191.567
  O      285.652    -241.059     192.702
  O      283.976    -240.514     194.633
  O      286.431    -241.003     195.076
  H      285.950    -241.607     195.675
  H      285.202    -241.211     190.712
  H      285.083    -239.602     191.384
  H      283.860    -240.795     191.751

 6  7  8  9  10  11  12  13  14  15  16  26  30  31  32  33  35 0
 6-311+G(2d,p)
 ****
 37  38 0
 6-311+G(2d,p)
 ****
 1  2  3  4  5  17  18  19  20  21  22  23  24  25 0
 3-21G
 ****
 27  28  29  34  36  39  40  41  42  43  44  45  46 0
 3-21G
 ****


