%nproc=1
%NoSave
%Mem=1900MB
#P OB98/GEN NMR

erre ene a

0 1
  C      -80.181    -132.072    -480.632
  O      -79.507    -132.524    -479.477
  H      -80.637    -131.102    -480.403
  H      -80.977    -132.763    -480.914
  H      -79.479    -131.946    -481.460
  P      -78.909    -134.021    -479.464
  C      -79.869    -136.333    -478.898
  O      -80.182    -134.973    -479.158
  C      -81.135    -137.162    -478.638
  O      -81.695    -136.796    -477.347
  C      -82.235    -136.958    -479.690
  O      -82.743    -138.230    -480.090
  C      -83.303    -136.160    -478.949
  O      -84.595    -136.332    -479.525
  C      -83.125    -136.685    -477.519
  N      -83.724    -135.815    -476.516
  C      -85.087    -136.001    -476.260
  O      -85.728    -136.832    -476.903
  N      -85.700    -135.213    -475.317
  C      -85.030    -134.274    -474.720
  N      -85.692    -133.522    -473.807
  C      -83.585    -134.014    -474.992
  C      -83.007    -134.823    -475.886
  O      -77.748    -134.217    -478.555
  O      -78.589    -134.340    -481.000
  H      -84.744    -137.307    -479.660
  H      -77.941    -135.083    -481.051
  H      -83.073    -133.224    -474.470
  H      -81.965    -134.709    -476.137
  H      -83.556    -137.693    -477.418
  H      -83.047    -135.088    -478.991
  H      -81.886    -136.429    -480.578
  H      -80.851    -138.218    -478.554
  H      -86.675    -133.731    -473.655
  H      -79.196    -136.380    -478.028
  H      -85.268    -132.765    -473.283
  H      -79.352    -136.741    -479.773
  P      -82.542    -138.626    -481.636
  C      -83.805    -138.231    -483.868
  O      -83.723    -137.927    -482.478
  O      -82.926    -140.183    -481.667
  O      -81.160    -138.373    -482.139
  H      -82.108    -140.724    -481.672
  H      -84.629    -137.703    -484.301
  H      -83.950    -139.283    -483.995
  H      -82.898    -137.935    -484.352

 6  7  8  9  10  11  12  13  14  15  16  26  30  31  32  33  35 0
 6-311+G(2d,p)
 ****
 37  38 0
 6-311+G(2d,p)
 ****
 1  2  3  4  5  17  18  19  20  21  22  23  24  25 0
 3-21G
 ****
 27  28  29  34  36  39  40  41  42  43  44  45  46 0
 3-21G
 ****


