%nproc=1
%NoSave
%Mem=1900MB
#P OB98/GEN NMR

erre ene a

0 1
  C     -181.845     -20.776     280.216
  O     -181.398     -21.229     278.948
  P     -182.399     -22.102     278.052
  C     -180.904     -24.072     277.247
  O     -181.525     -22.838     276.925
  C     -180.164     -24.631     276.029
  O     -181.104     -24.781     274.920
  C     -179.013     -23.743     275.536
  O     -177.988     -24.609     275.020
  C     -179.654     -22.979     274.393
  O     -178.709     -22.422     273.491
  C     -180.538     -24.080     273.793
  N     -181.575     -23.557     272.906
  C     -181.215     -23.294     271.587
  O     -180.086     -23.472     271.131
  N     -182.196     -22.748     270.802
  C     -183.436     -22.363     271.215
  O     -184.229     -21.771     270.486
  C     -183.763     -22.665     272.617
  C     -182.833     -23.238     273.387
  O     -183.218     -20.997     277.237
  O     -183.297     -23.007     278.826
  H     -178.107     -21.860     274.011
  H     -184.093     -20.850     277.646
  H     -181.956     -22.563     269.840
  H     -184.747     -22.391     272.972
  H     -183.037     -23.452     274.428
  H     -179.919     -24.802     273.245
  H     -180.257     -22.158     274.796
  H     -178.602     -23.085     276.309
  H     -179.792     -25.636     276.274
  H     -181.667     -24.785     277.562
  H     -180.212     -23.931     278.086
  P     -176.533     -24.537     275.703
  C     -175.318     -23.877     273.478
  O     -175.467     -24.804     274.534
  O     -176.533     -25.903     276.542
  O     -176.319     -23.320     276.538
  H     -176.898     -26.653     276.041
  H     -175.477     -22.849     273.820
  H     -176.040     -24.108     272.691
  H     -174.309     -23.961     273.072
  H     -181.068     -20.212     280.687
  H     -182.096     -21.618     280.827
  H     -182.709     -20.157     280.090

 3  4  5  6  7  8  9  10  11  12  13  23  28  29  30  31  32 0
 6-311+G(2d,p)
 ****
 33  34 0
 6-311+G(2d,p)
 ****
 1  2  14  15  16  17  18  19  20  21  22  24  25  26 0
 3-21G
 ****
 27  35  36  37  38  39  40  41  42  43  44  45 0
 3-21G
 ****


