%nproc=1
%NoSave
%Mem=1900MB
#P OB98/GEN NMR

erre ene a

0 1
  C      -18.449     455.755    -183.788
  O      -19.094     456.244    -184.947
  H      -18.603     454.673    -183.732
  H      -18.873     456.213    -182.889
  H      -17.374     455.954    -183.838
  P      -19.083     457.822    -185.220
  C      -16.879     458.061    -186.555
  O      -17.545     458.257    -185.310
  C      -15.819     459.139    -186.770
  O      -16.435     460.435    -186.889
  C      -14.810     459.258    -185.630
  O      -13.880     458.196    -185.674
  C      -14.240     460.639    -185.912
  O      -13.280     460.592    -186.978
  C      -15.511     461.408    -186.351
  N      -16.132     462.178    -185.277
  C      -15.984     463.569    -185.353
  O      -15.351     464.079    -186.278
  N      -16.544     464.337    -184.363
  C      -17.226     463.783    -183.410
  N      -17.765     464.598    -182.469
  C      -17.431     462.325    -183.315
  C      -16.853     461.590    -184.265
  O      -19.910     458.657    -184.290
  O      -19.585     457.953    -186.734
  H      -13.788     460.377    -187.786
  H      -20.549     458.105    -186.761
  H      -18.016     461.904    -182.514
  H      -16.954     460.510    -184.268
  H      -15.273     462.103    -187.169
  H      -13.732     461.061    -185.043
  H      -15.336     459.292    -184.668
  H      -15.312     458.926    -187.722
  H      -17.608     465.597    -182.587
  H      -17.642     458.121    -187.339
  H      -18.438     464.297    -181.783
  H      -16.420     457.066    -186.596
  P      -12.926     457.870    -184.426
  C      -13.901     455.655    -183.556
  O      -13.838     457.062    -183.378
  O      -12.203     459.041    -183.857
  O      -11.954     456.728    -184.987
  H      -11.255     457.125    -185.568
  H      -14.533     455.228    -182.805
  H      -12.918     455.241    -183.473
  H      -14.300     455.435    -184.524

 6  7  8  9  10  11  12  13  14  15  16  26  30  31  32  33  35 0
 6-311+G(2d,p)
 ****
 37  38 0
 6-311+G(2d,p)
 ****
 1  2  3  4  5  17  18  19  20  21  22  23  24  25 0
 3-21G
 ****
 27  28  29  34  36  39  40  41  42  43  44  45  46 0
 3-21G
 ****


