%nproc=1
%NoSave
%Mem=1900MB
#P OB98/GEN NMR

erre ene a

0 1
  C     -197.635     253.401     590.810
  O     -197.897     254.750     591.110
  H     -197.406     253.319     589.738
  H     -198.500     252.773     591.031
  H     -196.758     253.047     591.371
  P     -198.320     255.132     592.612
  C     -196.350     256.792     592.837
  O     -196.993     255.629     593.357
  C     -196.689     258.009     593.702
  O     -196.029     257.834     594.991
  C     -196.186     259.324     593.079
  O     -197.207     260.317     592.972
  C     -194.960     259.673     593.922
  O     -194.648     261.050     593.977
  C     -195.277     259.040     595.284
  N     -194.104     258.719     596.086
  C     -194.021     259.295     597.354
  O     -194.878     260.021     597.856
  N     -192.896     258.988     598.058
  C     -191.858     258.193     597.649
  O     -190.882     257.948     598.343
  C     -191.993     257.643     596.295
  C     -193.084     257.917     595.587
  O     -199.104     254.097     593.345
  O     -199.160     256.491     592.439
  H     -194.488     261.343     593.053
  H     -200.118     256.293     592.513
  H     -192.836     259.380     598.999
  H     -191.184     257.019     595.933
  H     -193.217     257.533     594.578
  H     -195.928     259.695     595.874
  H     -194.090     259.155     593.486
  H     -195.871     259.175     592.043
  H     -197.770     258.034     593.881
  H     -196.712     256.942     591.816
  H     -195.265     256.638     592.821
  P     -198.073     260.601     591.653
  C     -200.260     259.264     592.243
  O     -199.082     259.371     591.447
  O     -197.299     261.048     590.460
  O     -199.041     261.801     592.098
  H     -199.187     262.353     591.290
  H     -200.802     258.385     591.962
  H     -200.874     260.126     592.089
  H     -199.988     259.200     593.276

 6  7  8  9  10  11  12  13  14  15  16  26  31  32  33  34  35 0
 6-311+G(2d,p)
 ****
 36  37 0
 6-311+G(2d,p)
 ****
 1  2  3  4  5  17  18  19  20  21  22  23  24  25 0
 3-21G
 ****
 27  28  29  30  38  39  40  41  42  43  44  45 0
 3-21G
 ****


