%nproc=1
%NoSave
%Mem=1900MB
#P OB98/GEN NMR

erre ene a

0 1
  C     -125.007     250.738     298.734
  O     -125.589     250.605     297.433
  P     -124.959     251.431     296.209
  C     -122.850     250.216     295.382
  O     -124.248     250.403     295.199
  C     -122.358     248.875     294.820
  O     -122.828     247.763     295.633
  C     -122.798     248.593     293.376
  O     -121.725     247.886     292.736
  C     -123.997     247.680     293.575
  O     -124.333     246.953     292.393
  C     -123.514     246.842     294.765
  N     -124.601     246.159     295.443
  C     -124.882     244.844     295.058
  O     -124.281     244.348     294.098
  N     -125.842     244.140     295.741
  C     -126.565     244.751     296.625
  N     -127.500     244.018     297.296
  C     -126.427     246.187     296.936
  C     -125.420     246.819     296.336
  O     -124.127     252.611     296.594
  O     -126.260     251.891     295.382
  H     -123.550     246.434     292.112
  H     -126.093     252.774     294.995
  H     -127.109     246.673     297.622
  H     -125.230     247.869     296.497
  H     -122.776     246.092     294.439
  H     -124.872     248.284     293.856
  H     -123.019     249.499     292.806
  H     -121.260     248.864     294.875
  H     -127.599     243.038     297.059
  H     -122.616     250.262     296.455
  H     -128.071     244.408     298.042
  H     -122.312     251.053     294.923
  P     -121.051     248.522     291.425
  C     -118.965     249.580     292.560
  O     -119.466     248.607     291.675
  O     -121.485     250.063     291.552
  O     -121.501     247.964     290.110
  H     -121.488     250.470     290.655
  H     -117.932     249.318     292.826
  H     -119.547     249.636     293.478
  H     -118.958     250.566     292.069
  H     -125.543     250.125     299.429
  H     -125.060     251.760     299.046
  H     -123.984     250.428     298.700

 3  4  5  6  7  8  9  10  11  12  13  23  27  28  29  30  32 0
 6-311+G(2d,p)
 ****
 34  35 0
 6-311+G(2d,p)
 ****
 1  2  14  15  16  17  18  19  20  21  22  24  25  26 0
 3-21G
 ****
 31  33  36  37  38  39  40  41  42  43  44  45  46 0
 3-21G
 ****


