%nproc=1
%NoSave
%Mem=1900MB
#P OB98/GEN NMR

erre ene a

0 1
  C      132.146     149.618    -138.388
  O      132.238     148.330    -138.984
  P      130.894     147.453    -139.070
  C      131.125     145.395    -137.502
  O      130.739     146.759    -137.633
  C      130.322     144.714    -136.399
  O      130.232     145.574    -135.246
  C      128.885     144.381    -136.775
  O      128.789     143.174    -137.516
  C      128.260     144.210    -135.401
  O      128.588     142.911    -134.873
  C      128.964     145.304    -134.590
  N      125.872     148.088    -131.620
  C      126.416     146.865    -131.453
  N      127.223     146.187    -132.296
  C      127.420     146.883    -133.429
  C      126.899     148.123    -133.755
  C      126.096     148.745    -132.784
  N      125.564     150.004    -132.943
  N      127.322     148.514    -135.006
  C      128.093     147.533    -135.426
  N      128.193     146.528    -134.503
  O      131.318     146.238    -140.023
  O      129.699     148.179    -139.584
  H      128.098     142.814    -134.034
  H      130.525     145.849    -140.441
  H      126.184     146.371    -130.514
  H      128.604     147.512    -136.379
  H      129.191     144.983    -133.567
  H      127.168     144.281    -135.418
  H      128.405     145.220    -137.295
  H      130.861     143.805    -136.101
  H      132.188     145.345    -137.253
  H      125.159     150.452    -132.136
  H      125.897     150.566    -133.720
  H      130.966     144.887    -138.460
  P      127.945     143.229    -138.881
  C      125.777     142.728    -137.539
  O      126.449     143.589    -138.439
  O      127.864     141.692    -139.317
  O      128.551     144.088    -139.939
  H      127.743     141.616    -140.281
  H      124.926     143.264    -137.113
  H      126.436     142.416    -136.725
  H      125.409     141.850    -138.074
  H      133.109     150.085    -138.398
  H      131.808     149.520    -137.378
  H      131.453     150.218    -138.940

 3  4  5  6  7  8  9  10  11  12  22  25  29  30  31  32 0
 6-311+G(2d,p)
 ****
 33  36  37 0
 6-311+G(2d,p)
 ****
 1  2  13  14  15  16  17  18  19  20  21  23  24  26 0
 3-21G
 ****
 27  28  34  35  38  39  40  41  42  43  44  45  46  47  48 0
 3-21G
 ****


