%nproc=1
%NoSave
%Mem=1900MB
#P OB98/GEN NMR

erre ene a

0 1
  C      241.393     287.325      87.077
  O      241.568     286.145      87.833
  H      240.651     287.138      86.297
  H      242.337     287.613      86.603
  H      241.036     288.136      87.718
  P      242.671     286.201      88.997
  C      242.785     287.377      91.306
  O      242.196     287.351      90.012
  C      242.687     288.775      91.911
  O      243.578     289.687      91.234
  C      241.296     289.392      91.844
  O      240.489     288.946      92.921
  C      241.624     290.877      91.931
  O      241.873     291.271      93.300
  C      242.909     290.967      91.094
  N      242.213     294.676      87.735
  C      242.311     294.726      89.112
  N      242.179     295.942      89.684
  N      242.510     293.677      89.864
  C      242.567     292.520      89.165
  C      242.478     292.337      87.803
  C      242.314     293.514      86.977
  O      242.301     293.545      85.749
  N      242.598     291.012      87.470
  C      242.725     290.393      88.630
  N      242.706     291.266      89.689
  O      243.942     286.854      88.273
  O      243.019     284.891      89.617
  H      241.868     292.242      93.355
  H      244.750     286.425      88.613
  H      242.090     295.519      87.206
  H      242.842     289.326      88.755
  H      243.590     291.734      91.479
  H      240.796     291.494      91.580
  H      241.747     296.717      89.203
  H      240.815     289.186      90.877
  H      242.179     295.965      90.697
  H      243.027     288.708      92.952
  H      243.839     287.091      91.219
  H      242.271     286.661      91.953
  P      238.904     288.850      92.696
  C      237.372     287.436      91.152
  O      238.649     288.026      91.343
  O      238.511     290.352      92.300
  O      238.132     288.393      93.885
  H      238.063     290.786      93.052
  H      237.353     286.924      90.213
  H      236.622     288.199      91.158
  H      237.179     286.740      91.942

 6  7  8  9  10  11  12  13  14  15  26  29  33  34 0
 6-311+G(2d,p)
 ****
 36  38  39  40  41 0
 6-311+G(2d,p)
 ****
 1  2  3  4  5  16  17  18  19  20  21  22  23  24  25 0
 3-21G
 ****
 27  28  30  31  32  35  37  42  43  44  45  46  47 0
 3-21G
 ****
 48  49 0
 3-21G
 ****


