%nproc=1
%NoSave
%Mem=1900MB
#P OB98/GEN NMR

erre ene a

0 1
  C     -101.290     236.226      30.427
  O     -102.374     235.381      30.759
  H     -101.576     236.844      29.574
  H     -100.417     235.627      30.153
  H     -101.045     236.876      31.271
  P     -102.164     234.397      32.010
  C     -100.451     232.494      32.462
  O     -101.213     233.211      31.498
  C     -100.409     231.016      32.085
  O     -101.698     230.410      32.334
  C     -100.120     230.764      30.610
  O      -98.746     230.899      30.297
  C     -100.644     229.344      30.447
  O      -99.672     228.378      30.864
  C     -101.853     229.324      31.390
  N     -106.106     226.887      29.964
  C     -105.074     226.514      30.751
  N     -103.981     227.229      31.094
  C     -104.034     228.460      30.555
  C     -105.021     228.983      29.738
  C     -106.105     228.139      29.443
  N     -107.144     228.507      28.623
  N     -104.704     230.268      29.351
  C     -103.546     230.523      29.930
  N     -103.106     229.463      30.671
  O     -103.595     233.700      32.166
  O     -101.729     235.064      33.273
  H     -100.117     227.509      30.825
  H     -104.092     234.133      32.885
  H     -105.127     225.507      31.150
  H     -102.992     231.449      29.839
  H     -101.912     228.395      31.968
  H     -100.894     229.140      29.407
  H     -100.725     231.436      29.988
  H      -99.665     230.513      32.719
  H     -100.918     232.601      33.446
  H      -99.441     232.913      32.499
  H     -107.852     227.826      28.400
  H     -107.093     229.392      28.138
  P      -98.357     231.228      28.777
  C      -98.746     230.016      26.502
  O      -98.649     229.910      27.914
  O      -96.760     231.322      28.804
  O      -98.977     232.471      28.234
  H      -96.458     232.008      28.176
  H      -98.942     229.051      26.085
  H      -97.826     230.394      26.109
  H      -99.543     230.683      26.248

 6  7  8  9  10  11  12  13  14  15  25  28  32  33  34  35 0
 6-311+G(2d,p)
 ****
 36  37  40 0
 6-311+G(2d,p)
 ****
 1  2  3  4  5  16  17  18  19  20  21  22  23  24 0
 3-21G
 ****
 26  27  29  30  31  38  39 41  42  43  44  45  46  47  48 0
 3-21G
 ****


