%nproc=1
%NoSave
%Mem=1900MB
#P OB98/GEN NMR

erre ene a

0 1
  C     -117.293     137.306    -633.454
  O     -117.454     136.973    -634.837
  P     -116.712     135.656    -635.348
  C     -118.978     134.421    -635.759
  O     -117.745     134.871    -636.297
  C     -120.125     135.279    -636.311
  O     -120.017     136.632    -635.830
  C     -120.148     135.379    -637.844
  O     -120.686     134.207    -638.432
  C     -120.981     136.638    -638.047
  O     -122.383     136.321    -638.005
  C     -120.577     137.504    -636.837
  N     -119.656     138.568    -637.202
  C     -120.085     139.457    -638.192
  O     -121.179     139.331    -638.750
  N     -119.213     140.439    -638.557
  C     -117.952     140.617    -638.058
  O     -117.209     141.509    -638.445
  C     -117.538     139.657    -637.033
  C     -118.370     138.701    -636.659
  O     -116.615     134.714    -634.051
  O     -115.360     135.899    -635.961
  H     -122.518     135.820    -637.171
  H     -115.780     134.211    -634.071
  H     -119.520     141.095    -639.242
  H     -116.526     139.768    -636.618
  H     -118.073     137.946    -635.905
  H     -121.473     137.955    -636.391
  H     -120.774     137.101    -639.020
  H     -119.106     135.573    -638.198
  H     -121.069     134.846    -635.953
  H     -118.952     134.476    -634.695
  H     -119.122     133.366    -636.043
  P     -120.582     134.102    -640.041
  C     -118.967     132.085    -640.292
  O     -120.283     132.543    -640.320
  O     -119.211     134.856    -640.320
  O     -121.772     134.680    -640.726
  H     -118.580     134.748    -639.577
  H     -118.338     132.598    -639.565
  H     -118.504     132.211    -641.301
  H     -118.945     131.004    -640.067
  H     -117.835     138.203    -633.238
  H     -116.255     137.456    -633.242
  H     -117.669     136.508    -632.849

 3  4  5  6  7  8  9  10  11  12  13  23  28  29  30  31  32 0
 6-311+G(2d,p)
 ****
 33  34 0
 6-311+G(2d,p)
 ****
 1  2  14  15  16  17  18  19  20  21  22  24  25  26 0
 3-21G
 ****
 27  35  36  37  38  39  40  41  42  43  44  45 0
 3-21G
 ****


