%nproc=1
%NoSave
%Mem=1900MB
#P OB98/GEN NMR

erre ene a

0 1
  C       69.301      99.529    -269.400
  O       69.872      98.326    -268.914
  P       69.204      96.897    -269.241
  C       70.919      96.293    -271.082
  O       69.572      96.623    -270.778
  C       70.958      95.125    -272.068
  O       70.580      93.913    -271.390
  C       70.005      95.262    -273.249
  O       70.507      96.175    -274.211
  C       69.908      93.809    -273.704
  O       71.057      93.457    -274.492
  C       69.939      93.045    -272.365
  N       68.610      92.643    -271.911
  C       68.292      91.288    -272.065
  O       69.096      90.495    -272.555
  N       67.064      90.856    -271.631
  C       66.223      91.695    -271.111
  N       65.047      91.197    -270.633
  C       66.496      93.138    -270.981
  C       67.705      93.536    -271.395
  O       67.756      96.794    -268.916
  O       70.127      95.846    -268.474
  H       71.072      94.070    -275.258
  H       69.838      95.675    -267.542
  H       65.758      93.803    -270.558
  H       67.995      94.573    -271.318
  H       70.578      92.157    -272.449
  H       69.013      93.601    -274.306
  H       69.020      95.607    -272.906
  H       71.995      95.011    -272.427
  H       64.979      90.185    -270.584
  H       71.424      96.002    -270.157
  H       64.483      91.712    -269.976
  H       71.428      97.176    -271.499
  P       69.494      96.702    -275.338
  C       68.870      98.609    -273.691
  O       68.401      97.592    -274.560
  O       68.698      95.381    -275.763
  O       70.153      97.367    -276.501
  H       69.047      95.029    -276.603
  H       68.032      99.261    -273.434
  H       69.645      99.205    -274.176
  H       69.258      98.165    -272.771
  H       69.891     100.361    -269.075
  H       68.305      99.629    -269.023
  H       69.277      99.506    -270.469

 3  4  5  6  7  8  9  10  11  12  13  23  27  28  29  30  32 0
 6-311+G(2d,p)
 ****
 34  35 0
 6-311+G(2d,p)
 ****
 1  2  14  15  16  17  18  19  20  21  22  24  25  26 0
 3-21G
 ****
 31  33  36  37  38  39  40  41  42  43  44  45  46 0
 3-21G
 ****


