%nproc=1
%NoSave
%Mem=1900MB
#P OB98/GEN NMR

erre ene a

0 1
  C      541.398      32.806     559.929
  O      540.234      32.155     559.454
  H      541.194      33.878     559.986
  H      542.231      32.639     559.240
  H      541.657      32.445     560.925
  P      540.316      30.556     559.315
  C      537.759      30.083     559.438
  O      538.936      30.092     558.639
  C      536.571      29.612     558.602
  O      536.782      28.254     558.167
  C      535.251      29.589     559.370
  O      534.675      30.880     559.484
  C      534.431      28.638     558.501
  O      533.842      29.314     557.387
  C      535.485      27.634     558.021
  N      532.705      23.441     558.952
  C      532.530      24.474     558.089
  N      533.328      25.556     557.884
  C      534.419      25.486     558.681
  C      534.728      24.501     559.611
  C      533.810      23.442     559.735
  N      533.970      22.408     560.630
  N      535.905      24.800     560.266
  C      536.300      25.938     559.732
  N      535.434      26.385     558.776
  O      540.184      30.057     560.835
  O      541.553      30.032     558.669
  H      533.468      28.617     556.814
  H      541.064      29.840     561.187
  H      531.640      24.429     557.462
  H      537.199      26.487     560.027
  H      535.361      27.371     556.957
  H      533.627      28.194     559.085
  H      535.397      29.140     560.360
  H      536.495      30.252     557.712
  H      537.561      31.104     559.806
  H      537.920      29.421     560.295
  H      533.236      21.716     560.715
  H      534.727      22.450     561.294
  P      533.975      31.257     560.873
  C      534.352      33.746     560.192
  O      533.483      32.787     560.759
  O      535.195      31.331     561.926
  O      532.919      30.293     561.326
  H      534.905      30.987     562.785
  H      533.875      34.704     560.192
  H      534.587      33.464     559.187
  H      535.252      33.796     560.768

 6  7  8  9  10  11  12  13  14  15  25  28  32  33  34  35 0
 6-311+G(2d,p)
 ****
 36  37  40 0
 6-311+G(2d,p)
 ****
 1  2  3  4  5  16  17  18  19  20  21  22  23  24 0
 3-21G
 ****
 26  27  29  30  31  38  39 41  42  43  44  45  46  47  48 0
 3-21G
 ****


