%nproc=1
%NoSave
%Mem=1900MB
#P OB98/GEN NMR

erre ene a

0 1
  C      -44.558     133.914     278.783
  O      -45.438     133.560     279.832
  H      -43.579     134.150     279.212
  H      -44.930     134.797     278.259
  H      -44.439     133.083     278.082
  P      -46.920     133.070     279.468
  C      -47.912     135.055     280.765
  O      -47.891     133.644     280.610
  C      -48.457     135.438     282.141
  O      -47.548     134.948     283.156
  C      -48.616     136.950     282.341
  O      -49.799     137.184     283.106
  C      -47.397     137.324     283.159
  O      -47.611     138.493     283.948
  C      -47.173     136.061     283.987
  N      -43.669     137.931     287.111
  C      -45.010     138.236     286.994
  N      -45.491     139.199     287.807
  N      -45.814     137.649     286.143
  C      -45.203     136.693     285.401
  C      -43.886     136.302     285.423
  C      -43.004     136.968     286.359
  O      -41.806     136.751     286.501
  N      -43.642     135.316     284.496
  C      -44.813     135.120     283.913
  N      -45.789     135.939     284.419
  O      -47.064     131.604     279.214
  O      -47.312     133.935     278.183
  H      -47.876     139.212     283.334
  H      -47.201     133.413     277.366
  H      -43.091     138.420     287.774
  H      -45.005     134.406     283.122
  H      -47.790     136.042     284.895
  H      -46.545     137.512     282.491
  H      -44.935     139.683     288.496
  H      -48.666     137.501     281.397
  H      -46.478     139.423     287.754
  H      -49.413     134.921     282.292
  H      -48.553     135.477     279.983
  H      -46.896     135.449     280.641
  P      -50.915     138.176     282.520
  C      -51.686     139.363     284.673
  O      -52.017     138.420     283.659
  O      -51.454     137.820     281.174
  O      -50.144     139.585     282.477
  H      -50.508     140.121     281.746
  H      -52.495     139.437     285.369
  H      -51.511     140.320     284.227
  H      -50.803     139.041     285.185

 6  7  8  9  10  11  12  13  14  15  26  29  33  34 0
 6-311+G(2d,p)
 ****
 36  38  39  40  41 0
 6-311+G(2d,p)
 ****
 1  2  3  4  5  16  17  18  19  20  21  22  23  24  25 0
 3-21G
 ****
 27  28  30  31  32  35  37  42  43  44  45  46  47 0
 3-21G
 ****
 48  49 0
 3-21G
 ****


