%nproc=1
%NoSave
%Mem=1900MB
#P OB98/GEN NMR

erre ene a

0 1
  C     -122.809     -33.309    -187.120
  O     -123.515     -32.087    -187.058
  P     -124.679     -31.748    -188.102
  C     -126.457     -32.934    -186.687
  O     -125.818     -32.867    -187.954
  C     -127.866     -32.348    -186.742
  O     -128.630     -33.025    -187.777
  C     -128.649     -32.470    -185.426
  O     -129.417     -31.270    -185.278
  C     -129.559     -33.656    -185.677
  O     -130.698     -33.656    -184.826
  C     -129.856     -33.478    -187.170
  N     -130.337     -34.704    -187.791
  C     -131.520     -34.619    -188.526
  O     -132.179     -33.579    -188.520
  N     -131.931     -35.720    -189.236
  C     -131.321     -36.853    -189.066
  N     -131.717     -37.901    -189.839
  C     -130.218     -37.034    -188.102
  C     -129.751     -35.922    -187.538
  O     -124.222     -31.509    -189.503
  O     -125.380     -30.439    -187.499
  H     -125.409     -29.746    -188.189
  H     -130.424     -33.947    -183.931
  H     -129.823     -38.019    -187.905
  H     -128.926     -35.947    -186.836
  H     -130.604     -32.690    -187.321
  H     -129.004     -34.588    -185.505
  H     -127.997     -32.592    -184.556
  H     -127.789     -31.295    -187.036
  H     -132.447     -37.730    -190.517
  H     -125.861     -32.360    -185.974
  H     -131.113     -38.705    -190.011
  H     -126.485     -33.973    -186.339
  P     -129.718     -30.736    -183.791
  C     -129.212     -28.288    -184.486
  O     -128.937     -29.348    -183.598
  O     -128.833     -31.743    -182.904
  O     -131.140     -30.782    -183.341
  H     -129.216     -31.797    -182.009
  H     -128.547     -27.453    -184.251
  H     -130.245     -27.952    -184.369
  H     -129.037     -28.592    -185.522
  H     -122.078     -33.339    -186.339
  H     -122.321     -33.391    -188.069
  H     -123.493     -34.123    -186.999

 3  4  5  6  7  8  9  10  11  12  13  24  27  28  29  30  32 0
 6-311+G(2d,p)
 ****
 34  35 0
 6-311+G(2d,p)
 ****
 1  2  14  15  16  17  18  19  20  21  22  23  25  26 0
 3-21G
 ****
 31  33  36  37  38  39  40  41  42  43  44  45  46 0
 3-21G
 ****


