%nproc=1
%NoSave
%Mem=1900MB
#P OB98/GEN NMR

erre ene a

0 1
  C      175.389      98.221     366.390
  O      176.432      99.068     365.947
  H      174.959      98.643     367.302
  H      175.777      97.222     366.611
  H      174.608      98.157     365.627
  P      177.222      98.604     364.632
  C      176.230     100.056     362.748
  O      177.268      99.921     363.712
  C      176.543     101.200     361.783
  O      175.642     101.105     360.649
  C      176.365     102.587     362.404
  O      177.387     103.455     361.914
  C      175.015     103.043     361.879
  O      174.896     104.462     361.841
  C      174.972     102.369     360.507
  N      171.166     104.435     357.809
  C      172.456     104.798     357.978
  N      173.411     104.178     358.705
  C      172.930     103.049     359.255
  C      171.640     102.553     359.175
  C      170.729     103.305     358.415
  N      169.408     102.957     358.260
  N      171.524     101.391     359.913
  C      172.726     101.182     360.417
  N      173.605     102.169     360.059
  O      176.703      97.375     363.964
  O      178.724      98.510     365.172
  H      174.990     104.802     362.756
  H      178.952      99.274     365.734
  H      172.761     105.709     357.469
  H      173.004     100.348     361.051
  H      175.486     102.954     359.736
  H      174.219     102.654     362.525
  H      176.391     102.565     363.494
  H      177.558     101.064     361.393
  H      175.276     100.251     363.249
  H      168.823     103.545     357.684
  H      169.064     102.107     358.686
  H      176.149      99.110     362.205
  P      178.543     103.919     362.923
  C      180.479     102.212     362.872
  O      179.956     103.428     362.342
  O      178.305     103.628     364.367
  O      178.607     105.502     362.668
  H      178.776     105.953     363.519
  H      181.418     101.995     362.407
  H      179.793     101.414     362.679
  H      180.619     102.314     363.928

 6  7  8  9  10  11  12  13  14  15  25  28  32  33  34  35 0
 6-311+G(2d,p)
 ****
 36  39  40 0
 6-311+G(2d,p)
 ****
 1  2  3  4  5  16  17  18  19  20  21  22  23  24 0
 3-21G
 ****
 26  27  29  30  31  37  38  41  42  43  44  45  46  47 0
 3-21G
 ****
 48 0
 3-21G
 ****


