%nproc=1
%NoSave
%Mem=1900MB
#P OB98/GEN NMR

erre ene a

0 1
  C     -227.887     356.218    -636.729
  O     -227.136     356.108    -635.533
  P     -227.885     355.482    -634.249
  C     -230.035     356.117    -632.937
  O     -228.992     356.547    -633.793
  C     -230.988     357.277    -632.615
  O     -231.420     357.903    -633.831
  C     -232.247     356.876    -631.876
  O     -231.984     356.625    -630.500
  C     -233.113     358.116    -632.136
  O     -232.741     359.175    -631.252
  C     -232.738     358.461    -633.586
  N     -236.261     359.646    -637.120
  C     -235.520     360.401    -636.289
  N     -234.623     360.022    -635.353
  C     -234.511     358.687    -635.336
  C     -235.210     357.765    -636.110
  C     -236.121     358.293    -637.035
  N     -236.871     357.500    -637.895
  N     -234.838     356.480    -635.796
  C     -233.933     356.613    -634.855
  N     -233.677     357.918    -634.546
  O     -226.778     355.586    -633.102
  O     -228.377     354.076    -634.436
  H     -233.250     359.971    -631.516
  H     -226.842     354.836    -632.478
  H     -235.672     361.489    -636.381
  H     -233.411     355.790    -634.368
  H     -232.675     359.541    -633.749
  H     -234.179     357.923    -631.983
  H     -232.707     355.991    -632.326
  H     -230.414     358.020    -632.025
  H     -229.611     355.736    -631.999
  H     -237.601     357.944    -638.418
  H     -236.865     356.509    -637.732
  H     -230.585     355.286    -633.420
  P     -233.083     355.787    -629.684
  C     -235.405     356.378    -628.743
  O     -234.321     356.792    -629.563
  O     -232.463     355.785    -628.203
  O     -233.377     354.428    -630.257
  H     -232.199     356.692    -627.930
  H     -236.152     357.166    -628.712
  H     -235.051     356.167    -627.725
  H     -235.862     355.473    -629.160
  H     -227.276     356.646    -637.496
  H     -228.737     356.845    -636.560
  H     -228.215     355.247    -637.035

 3  4  5  6  7  8  9  10  11  12  22  25  29  30  31  32 0
 6-311+G(2d,p)
 ****
 33  36  37 0
 6-311+G(2d,p)
 ****
 1  2  13  14  15  16  17  18  19  20  21  23  24  26 0
 3-21G
 ****
 27  28  34  35  38  39  40  41  42  43  44  45  46  47  48 0
 3-21G
 ****


