%nproc=1
%NoSave
%Mem=1900MB
#P OB98/GEN NMR

erre ene a

0 1
  C     1229.623      69.453    -457.831
  O     1230.778      68.733    -457.448
  H     1229.836      70.518    -457.754
  H     1228.774      69.214    -457.177
  H     1229.366      69.230    -458.873
  P     1230.679      67.128    -457.374
  C     1230.327      67.400    -454.822
  O     1229.888      66.785    -456.022
  C     1229.245      67.339    -453.747
  O     1228.875      65.943    -453.538
  C     1229.676      67.902    -452.382
  O     1228.507      68.428    -451.731
  C     1230.177      66.652    -451.671
  O     1230.320      66.871    -450.297
  C     1229.103      65.656    -452.131
  N     1229.508      64.272    -451.920
  C     1228.910      63.616    -450.844
  O     1228.095      64.206    -450.114
  N     1229.265      62.311    -450.572
  C     1230.194      61.744    -451.291
  N     1230.514      60.473    -450.973
  C     1230.902      62.424    -452.398
  C     1230.501      63.678    -452.655
  O     1231.977      66.390    -457.554
  O     1229.627      66.756    -458.520
  H     1230.910      67.634    -450.123
  H     1230.098      66.377    -459.283
  H     1231.681      61.928    -452.948
  H     1230.955      64.264    -453.455
  H     1228.160      65.823    -451.611
  H     1231.150      66.362    -452.052
  H     1230.443      68.690    -452.479
  H     1228.350      67.848    -454.121
  H     1230.023      60.040    -450.195
  H     1230.556      68.445    -455.059
  H     1231.235      59.941    -451.431
  H     1231.242      66.924    -454.458
  P     1228.325      69.992    -451.417
  C     1228.373      69.754    -448.846
  O     1228.995      70.343    -449.988
  O     1226.915      70.471    -451.568
  O     1229.279      70.755    -452.459
  H     1228.895      71.606    -452.680
  H     1228.896      70.052    -447.961
  H     1228.401      68.688    -448.934
  H     1227.356      70.080    -448.786

 6  7  8  9  10  11  12  13  14  15  16  26  30  31  32  33  35 0
 6-311+G(2d,p)
 ****
 37  38 0
 6-311+G(2d,p)
 ****
 1  2  3  4  5  17  18  19  20  21  22  23  24  25 0
 3-21G
 ****
 27  28  29  34  36  39  40  41  42  43  44  45  46 0
 3-21G
 ****


