%nproc=1
%NoSave
%Mem=1900MB
#P OB98/GEN NMR

erre ene a

0 1
  C     -653.185    -905.895    -899.120
  O     -652.199    -906.591    -898.370
  H     -652.765    -904.938    -899.450
  H     -654.048    -905.688    -898.480
  H     -653.495    -906.462    -900.000
  P     -652.451    -908.157    -898.120
  C     -650.167    -908.905    -899.100
  O     -650.992    -908.828    -897.960
  C     -648.703    -908.624    -898.740
  O     -648.526    -907.173    -898.600
  C     -648.262    -909.275    -897.400
  O     -646.893    -909.686    -897.530
  C     -648.316    -908.097    -896.420
  O     -647.471    -908.309    -895.290
  C     -647.867    -906.959    -897.340
  N     -645.952    -902.461    -896.130
  C     -645.414    -903.496    -896.880
  N     -644.149    -903.353    -897.320
  N     -646.072    -904.603    -897.160
  C     -647.330    -904.615    -896.670
  C     -647.983    -903.652    -895.920
  C     -647.241    -902.442    -895.610
  O     -647.665    -901.497    -894.950
  N     -649.237    -904.072    -895.570
  C     -649.346    -905.281    -896.090
  N     -648.227    -905.655    -896.750
  O     -652.941    -908.671    -899.560
  O     -653.435    -908.485    -897.050
  H     -646.562    -908.437    -895.610
  H     -653.917    -908.670    -899.600
  H     -645.405    -901.642    -895.950
  H     -650.206    -905.932    -895.990
  H     -646.794    -906.952    -897.500
  H     -649.341    -907.957    -896.070
  H     -643.596    -902.522    -897.180
  H     -648.873    -910.116    -897.080
  H     -643.757    -904.081    -897.910
  H     -648.060    -908.946    -899.560
  H     -650.493    -908.156    -899.840
  H     -650.253    -909.909    -899.560
  P     -646.288    -910.621    -896.370
  C     -645.752    -912.604    -897.970
  O     -645.243    -911.651    -897.040
  O     -647.519    -911.558    -895.970
  O     -645.769    -909.859    -895.190
  H     -647.495    -911.749    -895.020
  H     -644.950    -913.215    -898.329
  H     -646.207    -912.092    -898.792
  H     -646.481    -913.220    -897.486

 6  7  8  9  10  11  12  13  14  15  26  29  33  34 0
 6-311+G(2d,p)
 ****
 36  38  39  40  41 0
 6-311+G(2d,p)
 ****
 1  2  3  4  5  16  17  18  19  20  21  22  23  24  25 0
 3-21G
 ****
 27  28  30  31  32  35  37  42  43  44  45  46  47 0
 3-21G
 ****
 48  49 0
 3-21G
 ****


