%nproc=1
%NoSave
%Mem=1900MB
#P OB98/GEN NMR

erre ene a

0 1
  C       61.437       7.762     -44.927
  O       61.699       9.010     -44.319
  H       62.374       7.217     -45.063
  H       60.785       7.180     -44.271
  H       60.939       7.895     -45.891
  P       62.384      10.140     -45.228
  C       60.496      11.870     -44.804
  O       61.191      11.079     -45.756
  C       59.663      12.941     -45.505
  O       60.554      13.770     -46.305
  C       58.575      12.386     -46.437
  O       57.413      13.213     -46.320
  C       59.174      12.571     -47.819
  O       58.187      12.671     -48.839
  C       59.987      13.846     -47.624
  N       61.774      16.828     -51.334
  C       60.917      17.066     -50.320
  N       60.534      16.226     -49.338
  C       61.186      15.055     -49.434
  C       62.091      14.668     -50.406
  C       62.370      15.615     -51.407
  N       63.189      15.359     -52.483
  N       62.500      13.366     -50.193
  C       61.832      12.967     -49.128
  N       61.024      13.953     -48.636
  O       62.818       9.316     -46.531
  O       63.537      10.853     -44.608
  H       57.640      13.463     -48.672
  H       63.704       8.934     -46.396
  H       60.471      18.057     -50.299
  H       61.873      11.978     -48.696
  H       59.372      14.752     -47.686
  H       59.825      11.720     -48.053
  H       58.308      11.343     -46.233
  H       59.221      13.592     -44.742
  H       61.223      12.359     -44.147
  H       63.244      16.059     -53.206
  H       63.552      14.426     -52.609
  H       59.853      11.224     -44.198
  P       56.044      12.504     -45.881
  C       56.041      13.687     -43.562
  O       55.983      12.461     -44.282
  O       56.278      10.973     -46.284
  O       54.831      13.069     -46.546
  H       55.437      10.562     -46.553
  H       55.989      13.487     -42.512
  H       55.218      14.308     -43.848
  H       56.960      14.188     -43.785

 6  7  8  9  10  11  12  13  14  15  25  28  32  33  34  35 0
 6-311+G(2d,p)
 ****
 36  39  40 0
 6-311+G(2d,p)
 ****
 1  2  3  4  5  16  17  18  19  20  21  22  23  24 0
 3-21G
 ****
 26  27  29  30  31  37  38  41  42  43  44  45  46  47 0
 3-21G
 ****
 48 0
 3-21G
 ****


