%nproc=1
%NoSave
%Mem=1900MB
#P OB98/GEN NMR

erre ene a

0 1
  C     -890.250    -338.058    -665.439
  O     -890.768    -338.322    -664.132
  P     -892.299    -338.730    -663.868
  C     -892.117    -341.191    -663.132
  O     -892.493    -340.285    -664.174
  C     -890.966    -342.109    -663.588
  O     -889.800    -341.330    -663.916
  C     -890.490    -343.102    -662.530
  O     -891.406    -344.184    -662.404
  C     -889.121    -343.483    -663.072
  O     -889.225    -344.488    -664.087
  C     -888.637    -342.144    -663.674
  N     -887.687    -341.462    -662.806
  C     -886.329    -341.703    -663.061
  O     -885.992    -342.517    -663.933
  N     -885.390    -341.050    -662.307
  C     -885.770    -340.275    -661.335
  N     -884.797    -339.637    -660.618
  C     -887.180    -340.060    -660.985
  C     -888.081    -340.672    -661.755
  O     -893.288    -337.846    -664.552
  O     -892.484    -338.630    -662.275
  H     -889.520    -345.300    -663.655
  H     -893.408    -338.387    -662.077
  H     -887.463    -339.430    -660.144
  H     -889.147    -340.566    -661.571
  H     -888.169    -342.312    -664.659
  H     -888.460    -343.877    -662.298
  H     -890.372    -342.594    -661.563
  H     -891.289    -342.640    -664.487
  H     -883.835    -339.805    -660.896
  H     -892.992    -341.814    -662.885
  H     -884.984    -339.014    -659.848
  H     -891.819    -340.617    -662.253
  P     -892.452    -344.205    -661.196
  C     -894.856    -344.379    -662.077
  O     -893.803    -343.502    -661.703
  O     -891.939    -343.702    -659.881
  O     -892.876    -345.754    -661.091
  H     -893.080    -345.961    -660.149
  H     -895.803    -343.829    -662.016
  H     -894.904    -345.244    -661.412
  H     -894.703    -344.713    -663.108
  H     -889.212    -337.807    -665.367
  H     -890.785    -337.241    -665.876
  H     -890.365    -338.928    -666.051

 3  4  5  6  7  8  9  10  11  12  13  23  27  28  29  30  32 0
 6-311+G(2d,p)
 ****
 34  35 0
 6-311+G(2d,p)
 ****
 1  2  14  15  16  17  18  19  20  21  22  24  25  26 0
 3-21G
 ****
 31  33  36  37  38  39  40  41  42  43  44  45  46 0
 3-21G
 ****


