%nproc=1
%NoSave
%Mem=1900MB
#P OB98/GEN NMR

erre ene a

0 1
  C     -692.026     -97.778    -485.004
  O     -691.439     -97.714    -486.286
  H     -691.236     -97.716    -484.248
  H     -692.557     -98.730    -484.874
  H     -692.718     -96.947    -484.862
  P     -692.420     -97.898    -487.543
  C     -691.404     -95.636    -488.321
  O     -691.886     -96.920    -488.695
  C     -691.629     -94.651    -489.465
  O     -693.037     -94.624    -489.821
  C     -691.273     -93.210    -489.131
  O     -689.877     -92.967    -489.193
  C     -692.042     -92.462    -490.204
  O     -691.306     -92.390    -491.433
  C     -693.312     -93.321    -490.363
  N     -694.473     -92.696    -489.731
  C     -695.469     -92.261    -490.596
  O     -695.408     -92.382    -491.823
  N     -696.537     -91.635    -490.011
  C     -696.678     -91.367    -488.683
  O     -697.633     -90.756    -488.233
  C     -695.583     -91.836    -487.818
  C     -694.542     -92.467    -488.373
  O     -693.774     -97.208    -487.050
  O     -692.632     -99.312    -487.971
  H     -694.438     -97.894    -486.849
  H     -690.568     -91.770    -491.266
  H     -697.271     -91.314    -490.626
  H     -695.659     -91.639    -486.755
  H     -693.717     -92.813    -487.759
  H     -693.543     -93.469    -491.427
  H     -692.254     -91.444    -489.893
  H     -691.678     -92.937    -488.146
  H     -691.064     -94.998    -490.343
  H     -690.329     -95.692    -488.109
  H     -691.925     -95.310    -487.414
  P     -689.322     -91.628    -488.494
  C     -686.956     -92.768    -488.691
  O     -687.749     -91.595    -488.802
  O     -689.425     -92.041    -486.949
  O     -690.088     -90.408    -488.871
  H     -689.360     -93.005    -486.827
  H     -685.941     -92.537    -488.937
  H     -687.325     -93.513    -489.364
  H     -687.005     -93.138    -487.688

 6  7  8  9  10  11  12  13  14  15  16  27  31  32  33  34  35 0
 6-311+G(2d,p)
 ****
 36  37 0
 6-311+G(2d,p)
 ****
 1  2  3  4  5  17  18  19  20  21  22  23  24  25 0
 3-21G
 ****
 26  28  29  30  38  39  40  41  42  43  44  45 0
 3-21G
 ****


