%nproc=1
%NoSave
%Mem=1900MB
#P OB98/GEN NMR

erre ene a

0 1
  C     -351.868    -943.643     914.816
  O     -352.607    -944.362     913.849
  H     -350.804    -943.859     914.679
  H     -352.161    -943.957     915.823
  H     -352.028    -942.567     914.702
  P     -354.179    -944.056     913.769
  C     -354.114    -942.411     911.720
  O     -354.347    -942.597     913.112
  C     -354.893    -941.193     911.219
  O     -356.288    -941.287     911.562
  C     -354.451    -939.884     911.847
  O     -353.183    -939.454     911.389
  C     -355.597    -938.975     911.424
  O     -355.456    -938.553     910.066
  C     -356.811    -939.934     911.573
  N     -357.584    -939.661     912.776
  C     -358.544    -938.642     912.669
  O     -358.696    -938.043     911.602
  N     -359.277    -938.311     913.780
  C     -359.095    -938.954     914.892
  N     -359.847    -938.567     915.954
  C     -358.117    -940.054     915.041
  C     -357.405    -940.344     913.952
  O     -354.567    -943.803     915.299
  O     -354.995    -945.105     913.086
  H     -355.288    -939.350     909.538
  H     -354.017    -943.133     915.730
  H     -358.012    -940.569     915.984
  H     -356.660    -941.138     913.982
  H     -357.483    -939.846     910.714
  H     -355.657    -938.069     912.033
  H     -354.460    -939.961     912.941
  H     -354.809    -941.170     910.121
  H     -360.491    -937.803     915.827
  H     -354.390    -943.309     911.150
  H     -359.775    -938.977     916.880
  H     -353.035    -942.258     911.584
  P     -352.271    -938.502     912.303
  C     -351.347    -940.165     914.025
  O     -352.292    -939.127     913.781
  O     -352.603    -937.046     912.234
  O     -350.790    -938.848     911.806
  H     -350.525    -939.779     911.920
  H     -351.446    -940.508     915.034
  H     -350.357    -939.789     913.872
  H     -351.528    -940.977     913.353

 6  7  8  9  10  11  12  13  14  15  16  26  30  31  32  33  35 0
 6-311+G(2d,p)
 ****
 37  38 0
 6-311+G(2d,p)
 ****
 1  2  3  4  5  17  18  19  20  21  22  23  24  25 0
 3-21G
 ****
 27  28  29  34  36  39  40  41  42  43  44  45  46 0
 3-21G
 ****


