%nproc=1
%NoSave
%Mem=1900MB
#P OB98/GEN NMR

erre ene a

0 1
  C     -894.350    -465.760    -889.130
  O     -893.060    -465.618    -889.700
  P     -892.990    -465.322    -891.270
  C     -893.790    -466.535    -893.430
  O     -893.700    -466.553    -892.010
  C     -893.500    -467.923    -893.990
  O     -894.620    -468.807    -893.760
  C     -893.280    -467.967    -895.490
  O     -891.970    -467.481    -895.830
  C     -893.480    -469.450    -895.780
  O     -892.310    -470.194    -895.400
  C     -894.640    -469.777    -894.820
  N     -897.610    -472.023    -898.340
  C     -896.340    -472.272    -897.960
  N     -895.620    -471.620    -897.030
  C     -896.330    -470.620    -896.490
  C     -897.620    -470.244    -896.790
  C     -898.260    -470.984    -897.780
  N     -899.580    -470.715    -898.200
  N     -898.010    -469.133    -896.060
  C     -896.980    -468.871    -895.280
  N     -895.950    -469.744    -895.490
  O     -891.430    -465.534    -891.610
  O     -893.470    -463.963    -891.680
  H     -892.510    -471.148    -895.580
  H     -891.150    -464.916    -892.310
  H     -895.850    -473.096    -898.440
  H     -896.920    -468.076    -894.560
  H     -894.540    -470.781    -894.360
  H     -893.700    -469.659    -896.830
  H     -894.020    -467.371    -896.020
  H     -892.630    -468.338    -893.460
  H     -893.070    -465.830    -893.840
  H     -899.900    -471.231    -899.000
  H     -900.000    -469.866    -897.880
  H     -894.790    -466.199    -893.710
  P     -891.890    -466.255    -896.860
  C     -893.050    -465.879    -899.130
  O     -892.600    -466.845    -898.190
  O     -890.340    -466.289    -897.260
  O     -892.410    -464.965    -896.360
  H     -890.040    -467.188    -897.490
  H     -893.450    -466.414    -900.000
  H     -892.200    -465.254    -899.450
  H     -893.840    -465.259    -898.690
  H     -894.257    -465.954    -888.082
  H     -894.860    -466.575    -889.600
  H     -894.907    -464.858    -889.278

 3  4  5  6  7  8  9  10  11  12  22  25  29  30  31  32 0
 6-311+G(2d,p)
 ****
 33  36  37 0
 6-311+G(2d,p)
 ****
 1  2  13  14  15  16  17  18  19  20  21  23  24  26 0
 3-21G
 ****
 27  28  34  35  38  39  40  41  42  43  44  45  46  47  48 0
 3-21G
 ****


