%nproc=1
%NoSave
%Mem=1900MB
#P OB98/GEN NMR

erre ene a

0 1
  C      -44.158    -620.915    -121.467
  O      -45.418    -620.731    -122.113
  P      -46.752    -620.904    -121.241
  C      -47.931    -618.592    -121.778
  O      -47.920    -619.999    -121.856
  C      -48.601    -618.019    -123.038
  O      -47.728    -618.174    -124.176
  C      -49.915    -618.707    -123.386
  O      -51.021    -618.115    -122.695
  C      -49.988    -618.525    -124.893
  O      -50.387    -617.175    -125.222
  C      -48.506    -618.757    -125.281
  N      -48.044    -620.137    -125.507
  C      -46.708    -620.379    -125.811
  O      -45.845    -619.502    -125.906
  N      -46.355    -621.701    -125.993
  C      -47.145    -622.782    -125.744
  O      -46.763    -623.937    -125.871
  C      -48.498    -622.473    -125.273
  C      -48.887    -621.200    -125.194
  O      -46.402    -620.185    -119.867
  O      -47.177    -622.332    -121.046
  H      -50.181    -617.044    -126.158
  H      -46.396    -620.835    -119.135
  H      -45.409    -621.880    -126.284
  H      -49.143    -623.306    -125.022
  H      -49.893    -620.965    -124.849
  H      -48.253    -618.180    -126.190
  H      -50.717    -619.184    -125.343
  H      -49.862    -619.774    -123.173
  H      -48.766    -616.939    -122.895
  H      -46.922    -618.194    -121.676
  H      -48.485    -618.283    -120.883
  P      -52.201    -619.038    -122.139
  C      -52.295    -618.078    -119.762
  O      -52.935    -618.163    -121.023
  O      -51.813    -620.420    -121.736
  O      -53.271    -619.049    -123.334
  H      -53.161    -619.841    -123.906
  H      -52.799    -617.335    -119.156
  H      -51.240    -617.783    -119.892
  H      -52.337    -619.051    -119.265
  H      -43.369    -620.767    -122.175
  H      -44.101    -621.908    -121.072
  H      -44.059    -620.208    -120.670

 3  4  5  6  7  8  9  10  11  12  13  23  28  29  30  31  32 0
 6-311+G(2d,p)
 ****
 33  34 0
 6-311+G(2d,p)
 ****
 1  2  14  15  16  17  18  19  20  21  22  24  25  26  27 0
 3-21G
 ****
 35  36  37  38  39  40  41  42  43  44  45 0
 3-21G
 ****


