%nproc=1
%NoSave
%Mem=1900MB
#P OB98/GEN NMR

erre ene a

0 1
  C     -154.908     152.183     -24.887
  O     -154.220     151.493     -23.863
  H     -154.522     153.203     -24.939
  H     -155.980     152.227     -24.671
  H     -154.741     151.697     -25.851
  P     -154.688     149.999     -23.504
  C     -155.863     150.748     -21.319
  O     -156.017     150.203     -22.622
  C     -156.678     149.943     -20.309
  O     -156.393     150.363     -18.959
  C     -158.192     150.090     -20.448
  O     -158.727     149.390     -21.561
  C     -158.636     149.498     -19.120
  O     -158.535     148.063     -19.173
  C     -157.578     150.091     -18.158
  N     -158.035     151.311     -17.491
  C     -158.730     151.143     -16.286
  O     -158.935     150.017     -15.832
  N     -159.212     152.257     -15.639
  C     -159.032     153.431     -16.158
  N     -159.572     154.497     -15.501
  C     -158.291     153.654     -17.415
  C     -157.828     152.564     -18.025
  O     -153.649     149.108     -22.902
  O     -155.295     149.432     -24.872
  H     -157.601     147.850     -19.354
  H     -155.589     148.503     -24.706
  H     -158.177     154.654     -17.809
  H     -157.288     152.644     -18.961
  H     -157.290     149.357     -17.396
  H     -159.671     149.740     -18.863
  H     -158.482     151.144     -20.476
  H     -156.368     148.894     -20.393
  H     -160.107     154.304     -14.667
  H     -156.188     151.791     -21.344
  H     -159.715     155.386     -15.969
  H     -154.811     150.711     -21.018
  P     -160.051     149.982     -22.253
  C     -161.501     148.300     -20.886
  O     -161.274     149.648     -21.269
  O     -160.277     148.991     -23.488
  O     -159.978     151.418     -22.672
  H     -159.869     149.344     -24.302
  H     -162.348     148.252     -20.233
  H     -160.638     147.923     -20.378
  H     -161.689     147.708     -21.758

 6  7  8  9  10  11  12  13  14  15  16  26  30  31  32  33  35 0
 6-311+G(2d,p)
 ****
 37  38 0
 6-311+G(2d,p)
 ****
 1  2  3  4  5  17  18  19  20  21  22  23  24  25 0
 3-21G
 ****
 27  28  29  34  36  39  40  41  42  43  44  45  46 0
 3-21G
 ****


