%nproc=1
%NoSave
%Mem=1900MB
#P OB98/GEN NMR

erre ene a

0 1
  C     -228.864     161.641     297.566
  O     -227.608     161.002     297.679
  H     -228.834     162.319     296.709
  H     -229.072     162.227     298.465
  H     -229.659     160.908     297.405
  P     -227.411     159.875     298.802
  C     -226.746     158.221     296.951
  O     -226.386     158.796     298.198
  C     -225.499     157.794     296.177
  O     -224.922     158.963     295.542
  C     -224.420     157.152     297.055
  O     -223.805     156.096     296.318
  C     -223.423     158.277     297.262
  O     -222.106     157.792     297.519
  C     -223.544     159.051     295.951
  N     -219.572     162.143     296.379
  C     -219.622     160.782     296.145
  N     -218.440     160.140     296.033
  N     -220.736     160.108     296.034
  C     -221.844     160.878     296.154
  C     -221.926     162.230     296.386
  C     -220.686     162.964     296.521
  O     -220.578     164.165     296.739
  N     -223.235     162.641     296.471
  C     -223.938     161.538     296.292
  N     -223.142     160.440     296.107
  O     -228.673     159.289     299.350
  O     -226.552     160.604     299.936
  H     -221.507     158.570     297.512
  H     -227.124     160.891     300.672
  H     -218.686     162.611     296.464
  H     -225.019     161.480     296.297
  H     -222.917     158.626     295.156
  H     -223.734     158.896     298.114
  H     -217.542     160.597     296.091
  H     -224.812     156.770     298.002
  H     -218.451     159.145     295.839
  H     -225.806     157.115     295.372
  H     -227.300     158.969     296.374
  H     -227.396     157.355     297.123
  P     -223.699     154.645     296.992
  C     -225.209     153.198     295.490
  O     -223.873     153.544     295.839
  O     -224.538     154.435     298.208
  O     -222.136     154.533     297.344
  H     -222.030     153.966     298.132
  H     -225.196     152.460     294.716
  H     -225.724     154.069     295.143
  H     -225.712     152.805     296.349

 6  7  8  9  10  11  12  13  14  15  26  29  33  34 0
 6-311+G(2d,p)
 ****
 36  38  39  40  41 0
 6-311+G(2d,p)
 ****
 1  2  3  4  5  16  17  18  19  20  21  22  23  24  25 0
 3-21G
 ****
 27  28  30  31  32  35  37  42  43  44  45  46  47 0
 3-21G
 ****
 48  49 0
 3-21G
 ****


