%nproc=1
%NoSave
%Mem=1900MB
#P OB98/GEN NMR

erre ene a

0 1
  C       86.985      22.375     323.298
  O       86.972      20.993     323.624
  P       88.135      20.448     324.588
  C       87.791      18.010     323.768
  O       88.684      19.113     323.889
  C       87.782      17.484     322.339
  O       87.486      18.556     321.425
  C       89.108      16.903     321.870
  O       89.295      15.571     322.324
  C       88.928      16.946     320.358
  O       88.163      15.804     319.929
  C       88.119      18.238     320.160
  N       89.307      21.322     316.324
  C       88.413      20.273     316.369
  N       87.715      20.026     315.239
  N       88.219      19.528     317.428
  C       88.955      19.918     318.494
  C       89.876      20.938     318.573
  C       90.118      21.721     317.378
  O       90.945      22.621     317.261
  N       90.411      21.033     319.832
  C       89.790      20.100     320.524
  N       88.919      19.374     319.748
  O       87.327      19.894     325.854
  O       89.159      21.458     324.981
  H       88.697      15.011     320.132
  H       87.898      19.907     326.646
  H       89.403      21.872     315.490
  H       89.940      19.916     321.578
  H       87.315      18.096     319.428
  H       89.876      16.920     319.814
  H       87.723      20.641     314.441
  H       89.946      17.549     322.158
  H       87.027      19.284     315.266
  H       86.983      16.736     322.255
  H       86.780      18.335     324.035
  H       88.103      17.226     324.465
  P       90.689      15.252     323.057
  C       90.241      12.718     322.693
  O       91.127      13.808     322.516
  O       90.253      14.983     324.572
  O       91.707      16.337     322.942
  H       90.998      15.177     325.176
  H       89.197      13.028     322.586
  H       90.393      12.284     323.685
  H       90.459      11.961     321.937
  H       86.160      22.597     322.654
  H       87.901      22.615     322.800
  H       86.904      22.954     324.194

 3  4  5  6  7  8  9  10  11  12  23  26  30  31  33  0
 6-311+G(2d,p)
 ****
 35  36  37  38 0
 6-311+G(2d,p)
 ****
 1  2  13  14  15  16  17  18  19  20  21  22  24  25  27  28  29 0
 3-21G
 ****
 32  34  39  40  41  42  43  44  45  46  47  48  49 0
 3-21G
 ****


