%nproc=1
%NoSave
%Mem=1900MB
#P OB98/GEN NMR

erre ene a

0 1
  C     -101.228     -39.374     -48.967
  O     -101.032     -38.835     -50.257
  P     -101.485     -39.578     -51.597
  C      -99.622     -40.687     -53.029
  O     -100.454     -40.780     -51.877
  C      -98.636     -39.511     -52.963
  O      -97.864     -39.599     -51.748
  C      -97.635     -39.597     -54.119
  O      -97.977     -39.093     -55.395
  C      -96.326     -39.066     -53.548
  O      -96.095     -37.698     -53.886
  C      -96.508     -39.222     -52.037
  N      -91.924     -40.056     -50.041
  C      -92.564     -38.854     -50.279
  N      -91.806     -37.745     -50.141
  N      -93.817     -38.762     -50.640
  C      -94.415     -39.961     -50.829
  C      -93.890     -41.213     -50.613
  C      -92.517     -41.301     -50.174
  O      -91.889     -42.348     -50.033
  N      -94.763     -42.204     -50.981
  C      -95.804     -41.554     -51.459
  N      -95.623     -40.191     -51.425
  O     -101.901     -38.710     -52.740
  O     -102.797     -40.370     -51.090
  H      -96.203     -37.605     -54.850
  H     -103.428     -40.397     -51.835
  H      -90.932     -40.069     -49.842
  H      -96.691     -42.018     -51.871
  H      -96.336     -38.267     -51.527
  H      -95.474     -39.630     -53.946
  H      -90.806     -37.787     -50.008
  H      -97.451     -40.664     -54.296
  H      -92.189     -36.866     -50.470
  H      -99.167     -38.557     -52.909
  H     -100.277     -40.594     -53.900
  H      -99.060     -41.618     -53.147
  P      -97.404     -39.601     -56.800
  C      -95.386     -38.421     -57.838
  O      -95.829     -39.318     -56.836
  O      -97.979     -38.549     -57.862
  O      -97.802     -40.990     -57.177
  H      -97.987     -38.951     -58.752
  H      -94.308     -38.537     -57.968
  H      -95.599     -37.393     -57.529
  H      -95.884     -38.623     -58.791
  H     -100.843     -38.695     -48.235
  H     -100.716     -40.310     -48.890
  H     -102.274     -39.525     -48.799

 3  4  5  6  7  8  9  10  11  12  23  26  30  31 0
 6-311+G(2d,p)
 ****
 33  35  36  37  38 0
 6-311+G(2d,p)
 ****
 1  2  13  14  15  16  17  18  19  20  21  22  24  25 0
 3-21G
 ****
 27  28  29  32  34  39  40  41  42  43  44  45  46  47  48  49 0
 3-21G
 ****


