%nproc=1
%NoSave
%Mem=1900MB
#P OB98/GEN NMR

erre ene a

0 1
  C     -670.920     -29.821    -518.323
  O     -671.588     -30.333    -519.468
  P     -670.857     -30.818    -520.809
  C     -672.549     -30.382    -522.765
  O     -671.982     -31.301    -521.841
  C     -673.873     -30.878    -523.386
  O     -673.649     -32.147    -524.046
  C     -674.904     -31.143    -522.285
  O     -675.680     -30.073    -521.763
  C     -675.722     -32.311    -522.801
  O     -676.907     -31.886    -523.488
  C     -674.769     -33.013    -523.769
  N     -675.881     -37.904    -522.767
  C     -676.713     -36.896    -523.211
  N     -678.019     -37.210    -523.355
  N     -676.300     -35.682    -523.463
  C     -674.989     -35.481    -523.188
  C     -674.068     -36.397    -522.727
  C     -674.526     -37.750    -522.507
  O     -673.828     -38.688    -522.124
  N     -672.840     -35.824    -522.548
  C     -673.022     -34.555    -522.874
  N     -674.316     -34.298    -523.274
  O     -669.689     -31.720    -520.609
  O     -670.316     -29.441    -521.446
  H     -676.671     -31.120    -524.044
  H     -669.482     -29.659    -521.914
  H     -676.240     -38.831    -522.610
  H     -672.253     -33.793    -522.835
  H     -675.254     -33.206    -524.740
  H     -676.059     -32.947    -521.973
  H     -678.417     -38.086    -523.069
  H     -674.359     -31.533    -521.413
  H     -678.666     -36.424    -523.472
  H     -674.230     -30.190    -524.159
  H     -671.800     -30.217    -523.555
  H     -672.705     -29.412    -522.290
  P     -675.698     -29.567    -520.246
  C     -678.061     -28.752    -520.833
  O     -676.875     -28.490    -520.102
  O     -674.376     -28.663    -520.120
  O     -675.694     -30.646    -519.210
  H     -674.155     -28.510    -519.187
  H     -678.644     -27.836    -520.903
  H     -678.646     -29.511    -520.309
  H     -677.826     -29.108    -521.838
  H     -671.640     -29.573    -517.571
  H     -670.370     -28.944    -518.593
  H     -670.247     -30.561    -517.942

 3  4  5  6  7  8  9  10  11  12  23  26  30  31 0
 6-311+G(2d,p)
 ****
 33  35  36  37  38 0
 6-311+G(2d,p)
 ****
 1  2  13  14  15  16  17  18  19  20  21  22  24  25 0
 3-21G
 ****
 27  28  29  32  34  39  40  41  42  43  44  45  46  47  48  49 0
 3-21G
 ****


