%nproc=1
%NoSave
%Mem=1900MB
#P OB98/GEN NMR

erre ene a

0 1
  C      -47.576    -153.192     140.504
  O      -47.835    -153.931     139.321
  P      -48.850    -155.173     139.343
  C      -51.256    -155.581     140.157
  O      -50.137    -154.701     140.179
  C      -51.891    -155.681     141.544
  O      -51.057    -156.523     142.377
  C      -52.030    -154.336     142.247
  O      -53.239    -154.334     143.013
  C      -50.859    -154.294     143.214
  O      -51.139    -153.436     144.334
  C      -50.695    -155.776     143.554
  N      -46.946    -155.155     147.011
  C      -48.212    -154.687     146.967
  N      -49.146    -154.872     146.008
  C      -48.675    -155.675     145.037
  C      -47.408    -156.230     144.946
  C      -46.515    -155.939     145.996
  N      -45.227    -156.425     146.043
  N      -47.279    -156.974     143.788
  C      -48.456    -156.884     143.206
  N      -49.337    -156.119     143.927
  O      -48.258    -156.464     139.794
  O      -49.405    -155.267     137.847
  H      -52.018    -153.694     144.683
  H      -49.507    -156.199     137.578
  H      -48.521    -154.085     147.816
  H      -48.717    -157.341     142.264
  H      -51.364    -156.080     144.371
  H      -49.972    -153.897     142.703
  H      -52.023    -153.488     141.549
  H      -52.864    -156.173     141.447
  H      -50.909    -156.570     139.847
  H      -44.701    -156.267     146.889
  H      -44.963    -157.146     145.380
  H      -51.985    -155.222     139.424
  P      -53.946    -152.899     143.212
  C      -54.767    -151.095     141.524
  O      -54.042    -152.285     141.737
  O      -53.254    -152.076     144.252
  O      -55.438    -153.337     143.584
  H      -55.652    -154.227     143.230
  H      -54.751    -150.861     140.457
  H      -54.304    -150.266     142.069
  H      -55.805    -151.214     141.845
  H      -46.879    -152.409     140.290
  H      -47.165    -153.842     141.248
  H      -48.489    -152.767     140.866

 3  4  5  6  7  8  9  10  11  12  22  25  29  30  31  32 0
 6-311+G(2d,p)
 ****
 33  36  37 0
 6-311+G(2d,p)
 ****
 1  2  13  14  15  16  17  18  19  20  21  23  24  26 0
 3-21G
 ****
 27  28  34  35  38  39  40  41  42  43  44  45  46  47  48 0
 3-21G
 ****


