%nproc=1
%NoSave
%Mem=1900MB
#P OB98/GEN NMR

erre ene a

0 1
  C      475.156     221.114    -211.778
  O      475.149     222.181    -210.835
  P      474.240     222.231    -209.520
  C      476.064     221.309    -207.878
  O      475.204     222.373    -208.249
  C      476.846     221.585    -206.578
  O      477.504     220.362    -206.132
  C      477.957     222.604    -206.828
  O      477.661     223.994    -206.811
  C      479.077     222.197    -205.885
  O      479.028     222.901    -204.643
  C      478.814     220.706    -205.657
  N      483.276     218.222    -205.223
  C      482.647     219.050    -204.318
  N      483.312     219.294    -203.164
  N      481.484     219.609    -204.528
  C      480.976     219.348    -205.758
  C      481.511     218.558    -206.745
  C      482.778     217.900    -206.482
  O      483.367     217.150    -207.247
  N      480.722     218.556    -207.872
  C      479.714     219.356    -207.567
  N      479.826     219.862    -206.292
  O      473.163     221.201    -209.446
  O      473.525     223.673    -209.619
  H      478.203     222.656    -204.187
  H      472.640     223.576    -209.212
  H      484.162     217.802    -205.004
  H      478.896     219.599    -208.221
  H      478.835     220.459    -204.587
  H      480.056     222.415    -206.331
  H      484.256     218.994    -202.991
  H      478.342     222.413    -207.838
  H      482.954     220.071    -202.595
  H      476.168     221.870    -205.769
  H      476.751     221.143    -208.712
  H      475.490     220.380    -207.771
  P      478.046     225.056    -207.946
  C      475.553     225.010    -208.537
  O      476.709     225.818    -208.384
  O      478.368     224.151    -209.231
  O      479.203     225.941    -207.617
  H      478.861     224.672    -209.898
  H      474.812     225.562    -209.119
  H      475.129     224.779    -207.556
  H      475.791     224.077    -209.056
  H      475.853     221.334    -212.560
  H      474.177     220.999    -212.194
  H      475.444     220.207    -211.288

 3  4  5  6  7  8  9  10  11  12  23  26  30  31 0
 6-311+G(2d,p)
 ****
 33  35  36  37  38 0
 6-311+G(2d,p)
 ****
 1  2  13  14  15  16  17  18  19  20  21  22  24  25 0
 3-21G
 ****
 27  28  29  32  34  39  40  41  42  43  44  45  46  47  48  49 0
 3-21G
 ****


