%nproc=1
%NoSave
%Mem=1900MB
#P OB98/GEN NMR

erre ene a

0 1
  C      -18.938     -35.136     298.223
  O      -19.768     -35.807     297.258
  P      -19.217     -37.144     296.548
  C      -17.875     -37.736     294.377
  O      -18.439     -36.729     295.208
  C      -18.744     -37.949     293.130
  O      -20.055     -38.429     293.505
  C      -18.996     -36.685     292.321
  O      -17.872     -36.320     291.537
  C      -20.210     -37.101     291.493
  O      -19.805     -37.846     290.331
  C      -20.979     -37.996     292.480
  N      -22.147     -37.338     293.054
  C      -23.350     -38.026     292.963
  O      -23.471     -39.109     292.394
  N      -24.434     -37.412     293.535
  C      -24.445     -36.167     294.106
  O      -25.452     -35.662     294.583
  C      -23.160     -35.453     294.093
  C      -22.089     -36.063     293.575
  O      -20.564     -37.790     295.959
  O      -18.511     -38.111     297.442
  H      -19.295     -37.225     289.766
  H      -20.461     -38.759     295.902
  H      -25.314     -37.903     293.513
  H      -23.127     -34.455     294.519
  H      -21.132     -35.547     293.559
  H      -21.309     -38.915     291.976
  H      -20.785     -36.240     291.137
  H      -19.289     -35.861     292.990
  H      -18.262     -38.718     292.509
  H      -17.812     -38.668     294.939
  H      -16.858     -37.435     294.093
  P      -17.161     -34.929     291.895
  C      -18.065     -32.485     292.175
  O      -18.351     -33.847     291.932
  O      -16.369     -34.629     290.532
  O      -16.301     -35.000     293.119
  H      -16.850     -34.956     289.749
  H      -17.091     -32.197     291.760
  H      -18.067     -32.300     293.259
  H      -18.835     -31.872     291.706
  H      -19.450     -34.273     298.595
  H      -18.023     -34.835     297.758
  H      -18.724     -35.801     299.033

 3  4  5  6  7  8  9  10  11  12  13  23  28  29  30  31  32 0
 6-311+G(2d,p)
 ****
 33  34 0
 6-311+G(2d,p)
 ****
 1  2  14  15  16  17  18  19  20  21  22  24  25  26 0
 3-21G
 ****
 27  35  36  37  38  39  40  41  42  43  44  45 0
 3-21G
 ****


