%nproc=1
%NoSave
%Mem=1900MB
#P OB98/GEN NMR

erre ene a

0 1
  C      687.992     897.990      69.972
  O      687.280     898.337      71.171
  P      686.765     899.822      71.467
  C      686.904     900.050      74.033
  O      686.056     899.846      72.899
  C      686.326     899.408      75.299
  O      685.004     899.907      75.579
  C      686.173     897.888      75.235
  O      687.420     897.259      75.458
  C      685.140     897.643      76.324
  O      685.749     897.640      77.633
  C      684.224     898.877      76.174
  N      679.635     896.548      76.096
  C      680.589     896.670      77.058
  N      681.784     897.297      77.001
  C      681.959     897.862      75.803
  C      681.101     897.829      74.708
  C      679.888     897.130      74.885
  N      678.936     897.004      73.892
  N      681.633     898.510      73.622
  C      682.787     898.973      74.067
  N      683.043     898.599      75.364
  O      685.950     900.426      70.363
  O      688.115     900.681      71.711
  H      685.056     897.359      78.274
  H      687.958     901.597      71.463
  H      680.350     896.186      78.006
  H      683.476     899.557      73.479
  H      683.864     899.245      77.143
  H      684.613     896.685      76.218
  H      685.766     897.591      74.275
  H      686.966     899.690      76.151
  H      687.028     901.126      74.178
  H      678.119     896.451      74.084
  H      679.140     897.387      72.969
  H      687.890     899.608      73.818
  P      688.392     896.939      74.227
  C      689.009     894.463      74.637
  O      689.440     895.832      74.722
  O      688.993     898.119      73.555
  O      687.458     896.108      73.215
  H      687.755     896.274      72.291
  H      688.361     894.246      75.498
  H      689.895     893.822      74.691
  H      688.479     894.285      73.712
  H      688.235     896.948      69.990
  H      688.892     898.565      69.913
  H      687.379     898.198      69.120

 3  4  5  6  7  8  9  10  11  12  22  25  29  30  31  32 0
 6-311+G(2d,p)
 ****
 33  36  37 0
 6-311+G(2d,p)
 ****
 1  2  13  14  15  16  17  18  19  20  21  23  24  26 0
 3-21G
 ****
 27  28  34  35  38  39  40  41  42  43  44  45  46  47  48 0
 3-21G
 ****


