%nproc=1
%NoSave
%Mem=1900MB
#P OB98/GEN NMR

erre ene a

0 1
  C       96.941     158.452     183.067
  O       95.722     158.308     183.772
  H       96.731     158.430     181.992
  H       97.627     157.633     183.301
  H       97.411     159.407     183.313
  P       95.784     158.154     185.367
  C       96.940     156.450     186.936
  O       96.416     156.707     185.636
  C       97.083     154.949     187.156
  O       95.806     154.297     187.002
  C       98.013     154.280     186.152
  O       99.368     154.544     186.465
  C       97.583     152.832     186.283
  O       98.169     152.214     187.436
  C       96.052     152.978     186.452
  N       95.323     152.786     185.203
  C       94.897     151.482     184.936
  O       95.133     150.571     185.732
  N       94.231     151.239     183.760
  C       93.998     152.211     182.934
  N       93.333     151.900     181.784
  C       94.416     153.602     183.181
  C       95.073     153.817     184.324
  O       94.517     158.424     186.122
  O       96.961     159.151     185.797
  H       98.199     151.256     187.238
  H       96.607     160.043     185.973
  H       94.196     154.380     182.468
  H       95.417     154.812     184.586
  H       95.674     152.256     187.187
  H       97.873     152.249     185.410
  H       97.777     154.614     185.138
  H       97.425     154.778     188.187
  H       93.072     150.931     181.650
  H       96.234     156.874     187.659
  H       93.020     152.585     181.114
  H       97.910     156.947     187.067
  P      100.359     155.143     185.354
  C      101.295     154.261     183.118
  O      100.665     153.925     184.353
  O      101.561     155.853     185.889
  O       99.400     156.088     184.483
  H       99.176     156.923     184.969
  H      101.446     153.372     182.541
  H      102.240     154.724     183.314
  H      100.672     154.939     182.573

 6  7  8  9  10  11  12  13  14  15  16  26  30  31  32  33  35 0
 6-311+G(2d,p)
 ****
 37  38 0
 6-311+G(2d,p)
 ****
 1  2  3  4  5  17  18  19  20  21  22  23  24  25 0
 3-21G
 ****
 27  28  29  34  36  39  40  41  42  43  44  45  46 0
 3-21G
 ****


