%nproc=1
%NoSave
%Mem=1900MB
#P OB98/GEN NMR

erre ene a

0 1
  C       -2.893    -211.310    -302.633
  O       -2.844    -212.720    -302.693
  H       -3.825    -210.984    -302.165
  H       -2.053    -210.952    -302.031
  H       -2.812    -210.885    -303.636
  P       -4.019    -213.452    -303.504
  C       -4.400    -214.164    -305.967
  O       -3.472    -213.705    -304.994
  C       -3.678    -214.456    -307.280
  O       -3.149    -213.209    -307.799
  C       -2.514    -215.455    -307.163
  O       -2.729    -216.571    -308.032
  C       -1.301    -214.684    -307.662
  O       -0.429    -215.470    -308.474
  C       -1.913    -213.531    -308.449
  N        0.532    -210.272    -311.510
  C       -0.550    -211.054    -311.719
  N       -1.216    -211.818    -310.830
  C       -0.676    -211.705    -309.607
  C        0.410    -210.932    -309.233
  C        1.039    -210.202    -310.257
  N        2.175    -209.451    -310.055
  N        0.680    -211.080    -307.886
  C       -0.203    -211.962    -307.460
  N       -1.030    -212.383    -308.469
  O       -5.108    -212.292    -303.697
  O       -4.602    -214.650    -302.833
  H       -0.902    -215.637    -309.312
  H       -5.991    -212.628    -303.452
  H       -0.927    -211.073    -312.738
  H       -0.260    -212.362    -306.456
  H       -2.139    -213.811    -309.485
  H       -0.732    -214.318    -306.799
  H       -2.361    -215.809    -306.136
  H       -4.416    -214.818    -308.006
  H       -5.158    -213.392    -306.143
  H        2.627    -209.057    -310.866
  H        2.622    -209.481    -309.148
  H       -4.898    -215.063    -305.589
  P       -3.606    -217.785    -307.443
  C       -6.131    -218.419    -307.391
  O       -5.134    -217.515    -307.852
  O       -3.591    -217.503    -305.867
  O       -3.071    -219.136    -307.776
  H       -3.706    -218.340    -305.377
  H       -7.090    -218.104    -307.746
  H       -6.133    -218.432    -306.321
  H       -5.920    -219.401    -307.759

 6  7  8  9  10  11  12  13  14  15  25  28  32  33  34  35 0
 6-311+G(2d,p)
 ****
 36  39  40 0
 6-311+G(2d,p)
 ****
 1  2  3  4  5  16  17  18  19  20  21  22  23  24 0
 3-21G
 ****
 26  27  29  30  31  37  38  41  42  43  44  45  46  47  48 0
 3-21G
 ****


