%nproc=1
%NoSave
%Mem=1900MB
#P OB98/GEN NMR

erre ene a

0 1
  C     -298.380      63.131    -203.816
  O     -298.420      62.388    -202.614
  H     -299.328      63.030    -204.352
  H     -298.223      64.185    -203.571
  H     -297.556      62.788    -204.448
  P     -298.614      60.801    -202.759
  C     -301.196      60.865    -202.996
  O     -300.084      60.479    -202.203
  C     -302.228      61.587    -202.136
  O     -303.320      62.052    -202.955
  C     -302.867      60.729    -201.048
  O     -302.025      60.605    -199.911
  C     -304.110      61.547    -200.735
  O     -303.763      62.654    -199.883
  C     -304.513      62.061    -202.127
  N     -309.107      59.883    -201.540
  C     -308.384      60.697    -200.738
  N     -307.178      61.254    -200.972
  C     -306.727      60.910    -202.189
  C     -307.357      60.110    -203.128
  C     -308.604      59.576    -202.761
  N     -309.304      58.689    -203.565
  N     -306.576      59.971    -204.258
  C     -305.486      60.662    -203.997
  N     -305.534      61.252    -202.764
  O     -297.640      60.221    -201.622
  O     -298.291      60.242    -204.102
  H     -304.601      63.037    -199.564
  H     -296.792      59.966    -202.030
  H     -308.832      60.928    -199.777
  H     -304.639      60.755    -204.664
  H     -304.878      63.096    -202.096
  H     -304.884      60.971    -200.221
  H     -303.169      59.750    -201.435
  H     -301.745      62.472    -201.700
  H     -301.655      59.976    -203.440
  H     -309.889      58.044    -203.041
  H     -308.763      58.297    -204.327
  H     -300.845      61.521    -203.798
  P     -301.819      59.143    -199.290
  C     -303.936      59.547    -197.859
  O     -302.577      59.139    -197.872
  O     -300.269      59.137    -198.895
  O     -302.150      58.009    -200.202
  H     -299.821      58.383    -199.329
  H     -304.314      59.497    -196.859
  H     -304.509      58.900    -198.490
  H     -304.010      60.552    -198.218

 6  7  8  9  10  11  12  13  14  15  25  28  32  33  34  35 0
 6-311+G(2d,p)
 ****
 36  39  40 0
 6-311+G(2d,p)
 ****
 1  2  3  4  5  16  17  18  19  20  21  22  23  24 0
 3-21G
 ****
 26  27  29  30  31  37  38  41  42  43  44  45  46  47  48 0
 3-21G
 ****


