%nproc=1
%NoSave
%Mem=1900MB
#P OB98/GEN NMR

erre ene a

0 1
  C      -38.759     197.891    -844.253
  O      -39.128     199.117    -843.604
  P      -38.744     200.495    -844.331
  C      -41.126     201.540    -844.193
  O      -39.759     201.629    -843.816
  C      -42.019     202.136    -843.096
  O      -42.176     201.225    -841.986
  C      -41.483     203.438    -842.508
  O      -41.818     204.558    -843.319
  C      -42.239     203.492    -841.187
  O      -43.576     203.993    -841.426
  C      -42.277     202.020    -840.773
  N      -40.519     202.585    -836.055
  C      -41.661     203.079    -836.641
  N      -42.460     203.831    -835.865
  N      -41.999     202.862    -837.893
  C      -41.119     202.074    -838.554
  C      -39.943     201.514    -838.088
  C      -39.582     201.774    -836.706
  O      -38.572     201.362    -836.140
  N      -39.314     200.781    -839.057
  C      -40.110     200.878    -840.106
  N      -41.206     201.668    -839.855
  O      -39.237     200.242    -845.836
  O      -37.295     200.848    -844.274
  H      -43.990     204.112    -840.544
  H      -38.698     200.780    -846.454
  H      -40.304     202.780    -835.094
  H      -39.931     200.399    -841.053
  H      -43.224     201.752    -840.279
  H      -41.775     204.176    -840.474
  H      -42.286     203.999    -834.875
  H      -40.408     203.374    -842.317
  H      -43.320     204.190    -836.264
  H      -43.013     202.324    -843.537
  H      -41.408     200.502    -844.372
  H      -41.266     202.060    -845.147
  P      -41.193     205.983    -842.918
  C      -39.619     206.227    -844.967
  O      -40.782     206.679    -844.296
  O      -39.802     205.582    -842.248
  O      -42.044     206.797    -842.000
  H      -39.568     206.230    -841.556
  H      -39.579     206.701    -845.952
  H      -39.633     205.150    -845.091
  H      -38.727     206.521    -844.402
  H      -39.077     197.062    -843.656
  H      -37.696     197.857    -844.373
  H      -39.228     197.840    -845.213

 3  4  5  6  7  8  9  10  11  12  23  26  30  31 0
 6-311+G(2d,p)
 ****
 33  35  36  37  38 0
 6-311+G(2d,p)
 ****
 1  2  13  14  15  16  17  18  19  20  21  22  24  25 0
 3-21G
 ****
 27  28  29  32  34  39  40  41  42  43  44  45  46  47  48  49 0
 3-21G
 ****


