%nproc=1
%NoSave
%Mem=1900MB
#P OB98/GEN NMR

erre ene a

0 1
  C      445.546     -16.985     124.493
  O      444.203     -17.255     124.842
  H      445.637     -16.999     123.404
  H      446.202     -17.753     124.911
  H      445.847     -16.001     124.862
  P      443.823     -17.171     126.398
  C      441.678     -15.813     125.813
  O      442.233     -16.949     126.462
  C      440.184     -16.034     125.575
  O      440.023     -17.030     124.530
  C      439.438     -16.542     126.814
  O      438.132     -15.960     126.847
  C      439.332     -18.036     126.568
  O      438.263     -18.658     127.269
  C      439.160     -18.067     125.045
  N      439.506     -19.365     124.467
  C      438.565     -20.383     124.565
  O      437.438     -20.251     125.039
  N      438.965     -21.606     124.094
  C      440.190     -21.907     123.572
  O      440.498     -23.030     123.187
  C      441.146     -20.792     123.500
  C      440.767     -19.591     123.947
  O      444.407     -15.750     126.844
  O      444.325     -18.290     127.247
  H      445.327     -15.842     127.162
  H      438.143     -19.558     126.900
  H      438.293     -22.357     124.156
  H      442.130     -20.996     123.100
  H      441.453     -18.753     123.922
  H      438.132     -17.804     124.770
  H      440.264     -18.533     126.859
  H      439.962     -16.321     127.746
  H      439.742     -15.099     125.204
  H      442.180     -15.667     124.852
  H      441.837     -14.928     126.437
  P      437.793     -14.967     128.062
  C      436.755     -13.080     126.578
  O      436.552     -14.074     127.571
  O      439.044     -13.972     128.014
  O      437.598     -15.679     129.358
  H      439.346     -13.775     127.111
  H      435.828     -12.586     126.374
  H      437.119     -13.539     125.683
  H      437.470     -12.366     126.929

 6  7  8  9  10  11  12  13  14  15  16  27  31  32  33  34  35 0
 6-311+G(2d,p)
 ****
 36  37 0
 6-311+G(2d,p)
 ****
 1  2  3  4  5  17  18  19  20  21  22  23  24  25 0
 3-21G
 ****
 26  28  29  30  38  39  40  41  42  43  44  45 0
 3-21G
 ****


