%nproc=1
%NoSave
%Mem=1900MB
#P OB98/GEN NMR

erre ene a

0 1
  C     -251.976      22.592      58.918
  O     -251.516      23.576      58.002
  P     -252.585      24.170      56.959
  C     -254.023      23.105      55.081
  O     -252.883      22.982      55.923
  C     -253.873      22.228      53.844
  O     -252.676      22.591      53.130
  C     -253.734      20.741      54.137
  O     -254.990      20.126      54.379
  C     -253.122      20.242      52.835
  O     -254.158      20.052      51.854
  C     -252.209      21.412      52.431
  N     -248.062      18.669      51.465
  C     -249.320      18.600      50.901
  N     -249.489      17.686      49.919
  N     -250.322      19.355      51.265
  C     -249.996      20.248      52.229
  C     -248.785      20.412      52.866
  C     -247.698      19.534      52.489
  O     -246.579      19.505      53.001
  N     -248.837      21.434      53.780
  C     -250.061      21.913      53.668
  N     -250.812      21.207      52.763
  O     -251.713      25.200      56.097
  O     -253.773      24.827      57.573
  H     -254.922      19.658      52.315
  H     -252.293      25.890      55.720
  H     -247.322      18.074      51.134
  H     -250.442      22.761      54.221
  H     -252.286      21.623      51.359
  H     -252.606      19.283      52.945
  H     -248.727      17.172      49.507
  H     -253.035      20.563      54.962
  H     -250.397      17.647      49.467
  H     -254.733      22.413      53.186
  H     -254.129      24.149      54.767
  H     -254.915      22.820      55.650
  P     -254.975      18.775      55.247
  C     -253.716      16.514      55.015
  O     -254.042      17.763      54.431
  O     -256.452      18.192      55.043
  O     -254.640      18.974      56.687
  H     -256.700      17.629      55.801
  H     -254.553      16.111      55.590
  H     -252.849      16.633      55.672
  H     -253.467      15.807      54.220
  H     -251.168      22.286      59.549
  H     -252.346      21.746      58.377
  H     -252.761      23.003      59.518

 3  4  5  6  7  8  9  10  11  12  23  26  30  31  33  0
 6-311+G(2d,p)
 ****
 35  36  37  38 0
 6-311+G(2d,p)
 ****
 1  2  13  14  15  16  17  18  19  20  21  22  24  25  27  28  29 0
 3-21G
 ****
 32  34  39  40  41  42  43  44  45  46  47  48  49 0
 3-21G
 ****


