%nproc=1
%NoSave
%Mem=1900MB
#P OB98/GEN NMR

erre ene a

0 1
  C     -415.271     -46.339     111.883
  O     -416.284     -46.416     112.870
  H     -414.847     -45.332     111.895
  H     -415.695     -46.533     110.894
  H     -414.479     -47.058     112.101
  P     -417.019     -47.833     113.029
  C     -414.826     -48.488     114.239
  O     -415.824     -48.868     113.301
  C     -414.329     -49.706     115.013
  O     -413.267     -49.337     115.910
  C     -415.388     -50.376     115.878
  O     -416.213     -51.227     115.100
  C     -414.513     -51.164     116.840
  O     -414.057     -52.375     116.202
  C     -413.326     -50.213     117.068
  N     -412.001     -49.839     122.014
  C     -411.908     -50.859     121.136
  N     -412.320     -50.902     119.849
  C     -412.878     -49.737     119.489
  C     -413.042     -48.608     120.276
  C     -412.564     -48.683     121.595
  N     -412.652     -47.634     122.485
  N     -413.659     -47.598     119.564
  C     -413.817     -48.095     118.354
  N     -413.393     -49.397     118.265
  O     -417.972     -48.192     111.943
  O     -417.671     -47.675     114.482
  H     -414.781     -53.025     116.258
  H     -417.065     -47.203     115.079
  H     -411.441     -51.764     121.512
  H     -414.213     -47.549     117.505
  H     -412.373     -50.757     117.115
  H     -415.052     -51.464     117.742
  H     -415.969     -49.639     116.444
  H     -413.909     -50.416     114.288
  H     -415.222     -47.740     114.935
  H     -412.443     -47.827     123.454
  H     -413.181     -46.820     122.209
  H     -414.002     -48.036     113.676
  P     -417.311     -52.163     115.798
  C     -418.914     -50.150     115.813
  O     -418.312     -51.184     116.585
  O     -416.762     -53.275     116.619
  O     -418.209     -52.702     114.590
  H     -418.463     -53.631     114.745
  H     -419.556     -49.565     116.439
  H     -419.487     -50.584     115.021
  H     -418.151     -49.523     115.400

 6  7  8  9  10  11  12  13  14  15  25  28  32  33  34  35 0
 6-311+G(2d,p)
 ****
 36  39  40 0
 6-311+G(2d,p)
 ****
 1  2  3  4  5  16  17  18  19  20  21  22  23  24 0
 3-21G
 ****
 26  27  29  30  31  37  38  41  42  43  44  45  46  47 0
 3-21G
 ****
 48 0
 3-21G
 ****


