%nproc=1
%NoSave
%Mem=1900MB
#P OB98/GEN NMR

erre ene a

0 1
  C      839.876    -570.514     208.633
  O      840.749    -571.579     209.027
  P      841.847    -572.203     208.029
  C      844.066    -571.482     206.929
  O      843.065    -571.157     207.892
  C      845.415    -570.842     207.286
  O      845.289    -569.416     207.417
  C      846.028    -571.341     208.591
  O      846.636    -572.612     208.411
  C      846.985    -570.198     208.918
  O      848.215    -570.344     208.173
  C      846.201    -568.970     208.441
  N      844.729    -564.419     210.266
  C      845.412    -564.776     209.156
  N      845.778    -566.011     208.737
  C      845.329    -566.945     209.601
  C      844.627    -566.737     210.774
  C      844.331    -565.405     211.110
  N      843.652    -565.052     212.257
  N      844.377    -567.942     211.413
  C      844.897    -568.857     210.610
  N      845.488    -568.305     209.504
  O      841.288    -572.668     206.730
  O      842.494    -573.422     208.839
  H      848.009    -570.224     207.232
  H      842.815    -574.095     208.216
  H      845.703    -563.943     208.505
  H      844.868    -569.923     210.797
  H      846.866    -568.230     207.969
  H      847.258    -570.170     209.975
  H      845.259    -571.402     209.367
  H      846.100    -571.029     206.448
  H      843.735    -571.120     205.956
  H      843.507    -564.072     212.450
  H      843.381    -565.775     212.906
  H      844.164    -572.572     206.895
  P      846.029    -573.903     209.141
  C      844.600    -575.788     208.140
  O      844.772    -574.385     208.268
  O      845.772    -573.765     210.600
  O      847.117    -575.042     208.837
  H      847.103    -575.698     209.569
  H      845.277    -576.165     207.357
  H      843.570    -575.990     207.839
  H      844.793    -576.288     209.077
  H      839.233    -570.260     209.449
  H      839.285    -570.828     207.798
  H      840.458    -569.659     208.357

 3  4  5  6  7  8  9  10  11  12  22  25  29  30  31  32 0
 6-311+G(2d,p)
 ****
 33  36  37 0
 6-311+G(2d,p)
 ****
 1  2  13  14  15  16  17  18  19  20  21  23  24  26 0
 3-21G
 ****
 27  28  34  35  38  39  40  41  42  43  44  45  46  47  48 0
 3-21G
 ****


