%nproc=1
%NoSave
%Mem=1900MB
#P OB98/GEN NMR

erre ene a

0 1
  C     -358.010     563.218     -82.174
  O     -358.010     562.440     -80.970
  P     -359.162     561.343     -80.764
  C     -359.699     559.419     -79.110
  O     -358.822     560.493     -79.442
  C     -359.337     558.807     -77.756
  O     -358.199     557.918     -77.916
  C     -358.926     559.822     -76.673
  O     -359.938     560.400     -75.845
  C     -358.064     558.958     -75.772
  O     -358.900     558.236     -74.845
  C     -357.390     557.971     -76.730
  N     -352.852     556.220     -78.341
  C     -354.025     555.593     -78.105
  N     -355.195     556.139     -77.672
  C     -355.065     557.470     -77.494
  C     -353.922     558.235     -77.707
  C     -352.780     557.559     -78.150
  N     -351.576     558.194     -78.380
  N     -354.183     559.564     -77.413
  C     -355.443     559.588     -77.029
  N     -356.024     558.347     -77.078
  O     -359.509     560.540     -81.964
  O     -360.405     562.226     -80.287
  H     -358.319     557.648     -74.329
  H     -361.226     561.860     -80.665
  H     -354.037     554.519     -78.273
  H     -355.976     560.476     -76.700
  H     -357.341     556.957     -76.315
  H     -357.369     559.546     -75.156
  H     -358.306     560.624     -77.115
  H     -360.197     558.218     -77.381
  H     -359.657     558.659     -79.896
  H     -350.779     557.624     -78.646
  H     -351.482     559.179     -78.189
  H     -360.727     559.826     -79.154
  P     -360.872     561.599     -76.374
  C     -363.326     562.127     -75.681
  O     -362.022     561.755     -75.272
  O     -361.342     561.462     -77.776
  O     -359.949     562.901     -76.110
  H     -359.807     563.098     -75.182
  H     -364.016     561.981     -74.830
  H     -363.671     561.534     -76.519
  H     -363.351     563.208     -75.927
  H     -357.185     563.899     -82.159
  H     -358.925     563.768     -82.243
  H     -357.920     562.568     -83.019

 3  4  5  6  7  8  9  10  11  12  22  25  29  30  31  32 0
 6-311+G(2d,p)
 ****
 33  36  37 0
 6-311+G(2d,p)
 ****
 1  2  13  14  15  16  17  18  19  20  21  23  24  26 0
 3-21G
 ****
 27  28  34  35  38  39  40  41  42  43  44  45  46  47  48 0
 3-21G
 ****


