%nproc=1
%NoSave
%Mem=1900MB
#P OB98/GEN NMR

erre ene a

0 1
  C      435.595     166.400     409.548
  O      436.982     166.368     409.790
  H      435.430     166.663     408.501
  H      435.129     167.160     410.181
  H      435.131     165.429     409.742
  P      437.522     165.582     411.077
  C      437.117     163.165     410.263
  O      438.085     164.157     410.593
  C      437.713     162.077     409.366
  O      438.191     162.667     408.137
  C      438.907     161.369     410.014
  O      438.560     160.270     410.843
  C      439.694     160.903     408.791
  O      439.252     159.612     408.342
  C      439.383     161.974     407.739
  N      444.030     162.851     405.798
  C      443.350     161.653     405.913
  N      444.017     160.552     405.494
  N      442.149     161.553     406.410
  C      441.655     162.720     406.886
  C      442.241     163.963     406.842
  C      443.545     164.081     406.217
  O      444.180     165.120     406.081
  N      441.458     164.912     407.455
  C      440.442     164.225     407.940
  N      440.480     162.907     407.549
  O      436.180     165.175     411.854
  O      438.434     166.363     411.975
  H      439.179     159.032     409.124
  H      436.351     165.152     412.812
  H      444.944     162.869     405.381
  H      439.633     164.637     408.535
  H      439.177     161.520     406.759
  H      440.759     160.807     409.029
  H      444.972     160.560     405.179
  H      439.521     162.081     410.566
  H      443.631     159.637     405.731
  H      436.922     161.365     409.094
  H      436.311     163.679     409.740
  H      436.700     162.728     411.171
  P      439.561     159.752     411.974
  C      438.747     161.184     414.020
  O      438.851     159.925     413.392
  O      440.698     160.872     411.993
  O      440.125     158.383     411.757
  H      441.479     160.584     411.476
  H      438.239     161.075     414.955
  H      438.197     161.852     413.391
  H      439.726     161.580     414.190

 6  7  8  9  10  11  12  13  14  15  26  29  33  34 0
 6-311+G(2d,p)
 ****
 36  38  39  40  41 0
 6-311+G(2d,p)
 ****
 1  2  3  4  5  16  17  18  19  20  21  22  23  24  25 0
 3-21G
 ****
 27  28  30  31  32  35  37  42  43  44  45  46  47 0
 3-21G
 ****
 48  49 0
 3-21G
 ****


