%nproc=1
%NoSave
%Mem=1900MB
#P OB98/GEN NMR

erre ene a

0 1
  C     -566.770     663.450     369.253
  O     -567.246     664.686     369.748
  H     -566.036     663.649     368.466
  H     -567.592     662.871     368.820
  H     -566.285     662.877     370.044
  P     -568.270     664.680     370.987
  C     -567.503     666.870     372.092
  O     -568.541     666.219     371.368
  C     -567.621     668.387     371.940
  O     -567.466     668.727     370.538
  C     -568.962     668.952     372.416
  O     -568.721     670.214     373.046
  C     -569.730     669.164     371.124
  O     -570.719     670.188     371.241
  C     -568.619     669.503     370.142
  N     -571.970     670.487     366.490
  C     -571.830     671.047     367.743
  N     -572.732     671.988     368.100
  N     -570.890     670.703     368.589
  C     -570.046     669.758     368.103
  C     -570.085     669.128     366.887
  C     -571.138     669.506     365.965
  O     -571.319     669.031     364.844
  N     -569.077     668.199     366.774
  C     -568.433     668.275     367.927
  N     -568.993     669.192     368.771
  O     -567.874     663.818     372.141
  O     -569.657     664.215     370.342
  H     -571.220     670.014     372.063
  H     -569.820     663.269     370.519
  H     -572.721     670.784     365.890
  H     -567.570     667.682     368.195
  H     -568.341     670.566     370.164
  H     -570.241     668.230     370.843
  H     -573.470     672.314     367.499
  H     -569.487     668.289     373.105
  H     -572.636     672.431     369.011
  H     -566.784     668.858     372.474
  H     -566.543     666.532     371.702
  H     -567.570     666.597     373.152
  P     -569.521     670.574     374.387
  C     -568.044     669.596     376.259
  O     -568.453     670.770     375.567
  O     -570.671     669.679     374.714
  O     -570.020     672.076     374.117
  H     -570.855     672.220     374.590
  H     -567.335     669.857     377.017
  H     -567.593     668.914     375.569
  H     -568.896     669.134     376.712

 6  7  8  9  10  11  12  13  14  15  26  29  33  34 0
 6-311+G(2d,p)
 ****
 36  38  39  40  41 0
 6-311+G(2d,p)
 ****
 1  2  3  4  5  16  17  18  19  20  21  22  23  24  25 0
 3-21G
 ****
 27  28  30  31  32  35  37  42  43  44  45  46  47 0
 3-21G
 ****
 48  49 0
 3-21G
 ****


