%nproc=1
%NoSave
%Mem=1900MB
#P OB98/GEN NMR

erre ene a

0 1
  C      179.316     256.274     153.355
  O      178.182     256.031     154.164
  H      179.422     257.345     153.168
  H      180.206     255.918     153.881
  H      179.228     255.736     152.407
  P      176.761     256.457     153.555
  C      176.114     254.024     152.926
  O      176.389     255.338     152.465
  C      175.051     253.372     152.049
  O      175.432     253.453     150.660
  C      174.817     251.891     152.324
  O      173.987     251.690     153.458
  C      174.119     251.470     151.041
  O      172.734     251.862     151.090
  C      174.864     252.300     149.984
  N      175.949     248.622     146.597
  C      174.779     249.177     146.984
  N      174.572     250.166     147.876
  C      175.739     250.603     148.377
  C      177.011     250.154     148.065
  C      177.098     249.108     147.132
  N      178.298     248.503     146.794
  N      177.965     250.836     148.797
  C      177.275     251.667     149.551
  N      175.930     251.568     149.328
  O      177.127     257.745     152.670
  O      175.702     256.760     154.561
  H      172.295     251.264     151.724
  H      176.938     258.550     153.186
  H      173.891     248.765     146.517
  H      177.706     252.350     150.269
  H      174.191     252.679     149.207
  H      174.144     250.389     150.872
  H      175.763     251.344     152.414
  H      174.120     253.940     152.169
  H      175.753     254.068     153.958
  H      178.198     247.530     146.519
  H      179.068     248.726     147.414
  H      177.040     253.443     152.897
  P      174.260     250.393     154.363
  C      175.603     251.716     156.134
  O      175.622     250.677     155.166
  O      174.675     249.286     153.283
  O      173.106     249.938     155.187
  H      174.092     248.510     153.365
  H      176.568     251.797     156.590
  H      174.872     251.492     156.883
  H      175.355     252.642     155.659

 6  7  8  9  10  11  12  13  14  15  25  28  32  33  34  35 0
 6-311+G(2d,p)
 ****
 36  39  40 0
 6-311+G(2d,p)
 ****
 1  2  3  4  5  16  17  18  19  20  21  22  23  24 0
 3-21G
 ****
 26  27  29  30  31  37  38  41  42  43  44  45  46  47  48 0
 3-21G
 ****


