%nproc=1
%NoSave
%Mem=1900MB
#P OB98/GEN NMR

erre ene a

0 1
  C     -235.601     271.147     -46.406
  O     -235.546     272.360     -45.647
  P     -236.848     273.237     -45.325
  C     -238.185     271.707     -43.737
  O     -237.371     272.868     -43.854
  C     -238.425     271.330     -42.267
  O     -237.308     270.593     -41.739
  C     -238.638     272.525     -41.341
  O     -239.962     273.023     -41.469
  C     -238.313     271.899     -39.975
  O     -239.449     271.164     -39.477
  C     -237.168     270.942     -40.344
  N     -233.297     271.162     -37.004
  C     -234.464     270.488     -36.982
  N     -235.457     270.476     -37.904
  C     -235.119     271.265     -38.957
  C     -233.967     272.024     -39.117
  C     -233.026     271.959     -38.070
  N     -231.844     272.659     -38.084
  N     -233.994     272.722     -40.296
  C     -235.135     272.379     -40.856
  N     -235.849     271.495     -40.090
  O     -237.909     273.166     -46.383
  O     -236.303     274.737     -45.176
  H     -239.150     270.698     -38.668
  H     -237.002     275.369     -45.413
  H     -234.636     269.862     -36.107
  H     -235.494     272.725     -41.826
  H     -237.245     270.000     -39.778
  H     -238.046     272.641     -39.230
  H     -237.905     273.306     -41.567
  H     -239.303     270.656     -42.239
  H     -237.678     270.875     -44.244
  H     -231.233     272.585     -37.285
  H     -231.649     273.285     -38.852
  H     -239.138     271.900     -44.236
  P     -240.218     274.604     -41.488
  C     -241.031     274.561     -43.924
  O     -241.353     274.886     -42.582
  O     -238.992     275.456     -41.614
  O     -240.979     274.891     -40.107
  H     -240.782     275.792     -39.796
  H     -240.411     275.345     -44.352
  H     -241.960     274.470     -44.493
  H     -240.497     273.600     -43.966
  H     -234.617     270.736     -46.494
  H     -235.989     271.354     -47.381
  H     -236.238     270.445     -45.910

 3  4  5  6  7  8  9  10  11  12  22  25  29  30  31  32 0
 6-311+G(2d,p)
 ****
 33  36  37 0
 6-311+G(2d,p)
 ****
 1  2  13  14  15  16  17  18  19  20  21  23  24  26 0
 3-21G
 ****
 27  28  34  35  38  39  40  41  42  43  44  45  46  47  48 0
 3-21G
 ****


