%nproc=1
%NoSave
%Mem=1900MB
#P OB98/GEN NMR

erre ene a

0 1
  C      108.418     -65.129     279.828
  O      107.987     -64.147     280.749
  H      107.624     -65.872     279.719
  H      109.316     -65.634     280.199
  H      108.615     -64.682     278.851
  P      108.982     -62.935     281.092
  C      110.838     -62.616     282.873
  O      109.802     -63.452     282.377
  C      111.005     -62.819     284.377
  O      110.897     -64.216     284.732
  C      112.358     -62.386     284.936
  O      112.516     -60.981     285.017
  C      112.295     -63.045     286.301
  O      111.426     -62.288     287.163
  C      111.680     -64.414     285.944
  N      112.690     -65.451     285.734
  C      113.598     -65.659     286.779
  O      113.536     -64.992     287.809
  N      114.585     -66.606     286.622
  C      114.672     -67.267     285.509
  N      115.670     -68.186     285.403
  C      113.748     -67.064     284.374
  C      112.793     -66.153     284.554
  O      108.349     -61.586     281.232
  O      110.101     -62.997     279.949
  H      111.475     -62.695     288.046
  H      110.738     -62.259     280.111
  H      113.881     -67.620     283.457
  H      112.082     -65.944     283.763
  H      110.985     -64.750     286.727
  H      113.267     -63.102     286.793
  H      113.178     -62.841     284.366
  H      110.175     -62.296     284.871
  H      116.286     -68.303     286.197
  H      110.581     -61.580     282.643
  H      115.858     -68.692     284.546
  H      111.784     -62.867     282.383
  P      114.024     -60.421     285.066
  C      115.751     -60.010     286.983
  O      114.501     -60.556     286.593
  O      113.833     -58.849     284.857
  O      114.961     -61.032     284.073
  H      114.004     -58.603     283.925
  H      115.908     -60.189     288.026
  H      115.753     -58.956     286.797
  H      116.534     -60.473     286.420

 6  7  8  9  10  11  12  13  14  15  16  26  30  31  32  33  35 0
 6-311+G(2d,p)
 ****
 37  38 0
 6-311+G(2d,p)
 ****
 1  2  3  4  5  17  18  19  20  21  22  23  24  25 0
 3-21G
 ****
 27  28  29  34  36  39  40  41  42  43  44  45  46 0
 3-21G
 ****


