%nproc=1
%NoSave
%Mem=1900MB
#P OB98/GEN NMR

erre ene a

0 1
  C      -60.334      22.869      -5.427
  O      -59.097      23.486      -5.709
  H      -60.664      23.181      -4.432
  H      -60.216      21.782      -5.426
  H      -61.097      23.159      -6.153
  P      -58.522      23.427      -7.204
  C      -57.716      25.863      -7.495
  O      -57.340      24.511      -7.266
  C      -57.909      26.588      -6.163
  O      -56.616      26.651      -5.486
  C      -58.425      28.033      -6.320
  O      -59.273      28.337      -5.208
  C      -57.136      28.826      -6.223
  O      -57.368      30.172      -5.895
  C      -56.382      28.032      -5.159
  N      -54.962      28.370      -5.144
  C      -54.596      29.511      -4.438
  O      -55.398      30.236      -3.850
  N      -53.271      29.846      -4.487
  C      -52.320      29.230      -5.246
  O      -51.163      29.620      -5.314
  C      -52.776      28.059      -6.016
  C      -54.054      27.686      -5.924
  O      -59.531      23.542      -8.298
  O      -57.714      22.046      -7.262
  H      -57.900      30.231      -5.080
  H      -57.607      21.754      -8.188
  H      -52.987      30.666      -3.972
  H      -52.051      27.559      -6.640
  H      -54.430      26.841      -6.491
  H      -56.805      28.213      -4.162
  H      -56.605      28.800      -7.180
  H      -58.961      28.200      -7.257
  H      -58.575      25.998      -5.524
  H      -58.656      25.865      -8.061
  H      -56.942      26.361      -8.088
  P      -60.822      28.707      -5.402
  C      -61.363      28.497      -2.901
  O      -61.427      29.336      -4.050
  O      -61.649      27.601      -5.977
  O      -60.806      29.953      -6.409
  H      -61.482      29.814      -7.101
  H      -61.789      29.007      -2.063
  H      -60.342      28.257      -2.691
  H      -61.910      27.596      -3.086

 6  7  8  9  10  11  12  13  14  15  16  26  31  32  33  34  35 0
 6-311+G(2d,p)
 ****
 36  37 0
 6-311+G(2d,p)
 ****
 1  2  3  4  5  17  18  19  20  21  22  23  24  25 0
 3-21G
 ****
 27  28  29  30  38  39  40  41  42  43  44  45 0
 3-21G
 ****


