%nproc=1
%NoSave
%Mem=1900MB
#P OB98/GEN NMR

erre ene a

0 1
  C      -58.596     456.474     -38.927
  O      -58.008     456.109     -37.693
  H      -58.424     455.670     -39.649
  H      -58.146     457.394     -39.312
  H      -59.676     456.611     -38.809
  P      -58.084     457.144     -36.471
  C      -60.171     455.750     -35.844
  O      -59.582     457.044     -35.896
  C      -60.764     455.491     -34.458
  O      -61.790     456.458     -34.163
  C      -61.407     454.114     -34.301
  O      -60.420     453.127     -34.041
  C      -62.313     454.367     -33.105
  O      -61.521     454.374     -31.893
  C      -62.833     455.783     -33.398
  N      -67.815     454.784     -33.375
  C      -66.843     454.463     -32.448
  N      -67.250     453.747     -31.375
  N      -65.582     454.801     -32.562
  C      -65.307     455.453     -33.719
  C      -66.183     455.811     -34.724
  C      -67.584     455.491     -34.548
  O      -68.483     455.781     -35.341
  N      -65.520     456.382     -35.788
  C      -64.260     456.413     -35.401
  N      -64.074     455.853     -34.157
  O      -57.637     458.544     -36.766
  O      -57.204     456.463     -35.318
  H      -62.137     454.529     -31.151
  H      -56.278     456.765     -35.356
  H      -68.767     454.492     -33.235
  H      -63.439     456.829     -35.979
  H      -62.993     456.364     -32.479
  H      -63.080     453.598     -32.982
  H      -68.171     453.330     -31.302
  H      -62.027     453.858     -35.167
  H      -66.537     453.451     -30.713
  H      -59.961     455.637     -33.719
  H      -59.384     455.020     -36.071
  H      -60.953     455.657     -36.603
  P      -60.685     451.571     -34.351
  C      -59.294     451.785     -36.531
  O      -60.536     451.427     -35.951
  O      -61.953     451.025     -33.795
  O      -59.365     450.834     -33.835
  H      -59.399     450.625     -32.864
  H      -59.340     451.640     -37.590
  H      -58.519     451.172     -36.120
  H      -59.085     452.813     -36.321

 6  7  8  9  10  11  12  13  14  15  26  29  33  34 0
 6-311+G(2d,p)
 ****
 36  38  39  40  41 0
 6-311+G(2d,p)
 ****
 1  2  3  4  5  16  17  18  19  20  21  22  23  24  25 0
 3-21G
 ****
 27  28  30  31  32  35  37  42  43  44  45  46  47 0
 3-21G
 ****
 48  49 0
 3-21G
 ****


