%nproc=1
%NoSave
%Mem=1900MB
#P OB98/GEN NMR

erre ene a

0 1
  C       17.628     -24.351     -68.476
  O       18.798     -24.618     -69.221
  H       16.885     -23.906     -69.144
  H       17.843     -23.641     -67.674
  H       17.215     -25.272     -68.057
  P       20.006     -25.397     -68.510
  C       21.107     -23.219     -67.685
  O       20.522     -24.461     -67.315
  C       21.198     -22.305     -66.466
  O       19.887     -22.099     -65.895
  C       22.060     -22.864     -65.339
  O       23.434     -22.741     -65.647
  C       21.578     -22.014     -64.173
  O       22.185     -20.713     -64.196
  C       20.063     -21.910     -64.472
  N       19.267     -22.874     -63.709
  C       18.443     -22.344     -62.722
  O       18.370     -21.142     -62.478
  N       17.733     -23.256     -61.986
  C       17.838     -24.613     -62.082
  O       17.355     -25.387     -61.262
  C       18.664     -25.112     -63.191
  C       19.343     -24.235     -63.933
  O       21.072     -25.908     -69.420
  O       19.275     -26.594     -67.734
  H       19.375     -27.419     -68.247
  H       23.113     -20.846     -64.470
  H       17.168     -22.885     -61.236
  H       18.722     -26.183     -63.342
  H       19.983     -24.582     -64.737
  H       19.694     -20.903     -64.238
  H       21.815     -22.461     -63.207
  H       21.795     -23.910     -65.147
  H       21.578     -21.329     -66.798
  H       20.473     -22.749     -68.446
  H       22.099     -23.401     -68.110
  P       24.378     -24.028     -65.743
  C       25.641     -23.238     -63.658
  O       24.969     -24.323     -64.282
  O       25.405     -23.980     -66.827
  O       23.363     -25.246     -65.973
  H       23.641     -25.749     -66.763
  H       25.993     -23.543     -62.694
  H       24.965     -22.416     -63.547
  H       26.472     -22.938     -64.262

 6  7  8  9  10  11  12  13  14  15  16  27  31  32  33  34  35 0
 6-311+G(2d,p)
 ****
 36  37 0
 6-311+G(2d,p)
 ****
 1  2  3  4  5  17  18  19  20  21  22  23  24  25 0
 3-21G
 ****
 26  28  29  30  38  39  40  41  42  43  44  45 0
 3-21G
 ****


