%nproc=1
%NoSave
%Mem=1900MB
#P OB98/GEN NMR

erre ene a

0 1
  C      -95.887      44.563    -104.305
  O      -95.177      45.551    -103.586
  H      -95.218      44.119    -105.048
  H      -96.733      45.018    -104.824
  H      -96.241      43.772    -103.638
  P      -95.832      46.172    -102.262
  C      -93.560      46.657    -101.139
  O      -94.764      47.206    -101.658
  C      -92.536      47.764    -100.861
  O      -92.129      48.346    -102.139
  C      -93.073      48.911     -99.982
  O      -91.970      49.413     -99.214
  C      -93.504      49.912    -101.040
  O      -93.734      51.184    -100.494
  C      -92.336      49.769    -102.023
  N      -92.591      50.378    -103.323
  C      -91.788      51.450    -103.698
  O      -90.869      51.894    -103.007
  N      -92.080      52.019    -104.908
  C      -93.080      51.634    -105.756
  O      -93.285      52.166    -106.839
  C      -93.916      50.513    -105.290
  C      -93.638      49.945    -104.115
  O      -96.377      45.184    -101.285
  O      -96.983      47.135    -102.826
  H      -97.841      46.673    -102.792
  H      -92.897      51.572    -100.158
  H      -91.508      52.798    -105.196
  H      -94.730      50.199    -105.930
  H      -94.233      49.120    -103.739
  H      -91.420      50.196    -101.601
  H      -94.440      49.593    -101.505
  H      -93.876      48.595     -99.310
  H      -91.640      47.312    -100.419
  H      -93.160      45.954    -101.878
  H      -93.784      46.114    -100.212
  P      -92.095      49.853     -97.673
  C      -89.705      49.186     -96.974
  O      -90.643      50.245     -97.111
  O      -92.812      48.852     -96.822
  O      -92.888      51.245     -97.689
  H      -93.470      51.294     -96.906
  H      -88.783      49.573     -96.593
  H      -89.535      48.734     -97.929
  H      -90.091      48.453     -96.297

 6  7  8  9  10  11  12  13  14  15  16  27  31  32  33  34  35 0
 6-311+G(2d,p)
 ****
 36  37 0
 6-311+G(2d,p)
 ****
 1  2  3  4  5  17  18  19  20  21  22  23  24  25 0
 3-21G
 ****
 26  28  29  30  38  39  40  41  42  43  44  45 0
 3-21G
 ****


