%nproc=1
%NoSave
%Mem=1900MB
#P OB98/GEN NMR

erre ene a

0 1
  C       64.121    -247.079     102.277
  O       65.357    -247.656     101.911
  H       63.953    -246.191     101.661
  H       64.147    -246.779     103.327
  H       63.302    -247.784     102.110
  P       65.702    -249.086     102.553
  C       67.111    -248.046     104.470
  O       65.982    -248.832     104.113
  C       67.163    -247.854     105.983
  O       66.010    -247.107     106.434
  C       67.164    -249.155     106.780
  O       68.465    -249.720     106.866
  C       66.693    -248.652     108.135
  O       67.780    -247.994     108.815
  C       65.620    -247.630     107.736
  N       60.904    -247.439     109.582
  C       62.028    -246.722     109.943
  N       61.878    -245.831     110.947
  N       63.197    -246.865     109.377
  C       63.205    -247.800     108.397
  C       62.157    -248.573     107.947
  C       60.867    -248.397     108.577
  O       59.834    -248.990     108.281
  N       62.545    -249.401     106.928
  C       63.827    -249.146     106.771
  N       64.280    -248.186     107.644
  O       67.158    -249.415     101.967
  O       64.734    -250.177     102.242
  H       67.395    -247.548     109.593
  H       67.221    -250.377     101.804
  H       60.031    -247.297     110.060
  H       64.472    -249.623     106.046
  H       65.571    -246.784     108.429
  H       66.348    -249.456     108.786
  H       61.017    -245.705     111.459
  H       66.436    -249.872     106.384
  H       62.679    -245.268     111.207
  H       68.052    -247.257     106.217
  H       67.036    -247.068     103.983
  H       68.019    -248.549     104.122
  P       68.612    -251.296     106.583
  C       68.574    -251.902     109.110
  O       67.936    -252.024     107.843
  O       70.177    -251.556     106.803
  O       68.149    -251.741     105.238
  H       70.449    -252.359     106.321
  H       68.011    -252.437     109.846
  H       68.629    -250.869     109.384
  H       69.562    -252.309     109.052

 6  7  8  9  10  11  12  13  14  15  26  29  33  34 0
 6-311+G(2d,p)
 ****
 36  38  39  40  41 0
 6-311+G(2d,p)
 ****
 1  2  3  4  5  16  17  18  19  20  21  22  23  24  25 0
 3-21G
 ****
 27  28  30  31  32  35  37  42  43  44  45  46  47 0
 3-21G
 ****
 48  49 0
 3-21G
 ****


