%nproc=1
%NoSave
%Mem=1900MB
#P OB98/GEN NMR

erre ene a

0 1
  C        3.519       1.321     -82.993
  O        2.167       1.453     -82.613
  H        3.714       2.010     -83.821
  H        3.728       0.305     -83.333
  H        4.177       1.581     -82.160
  P        1.555       0.423     -81.544
  C        0.247       2.463     -80.703
  O        0.164       1.092     -81.075
  C        0.346       3.371     -81.929
  O       -0.639       2.966     -82.916
  C        0.110       4.855     -81.623
  O        1.120       5.639     -82.261
  C       -1.251       5.139     -82.242
  O       -1.421       6.518     -82.557
  C       -1.241       4.170     -83.430
  N       -2.571       3.920     -83.972
  C       -2.912       4.615     -85.136
  O       -2.120       5.419     -85.632
  N       -4.151       4.416     -85.689
  C       -4.999       3.633     -85.102
  N       -6.214       3.485     -85.696
  C       -4.699       2.914     -83.846
  C       -3.478       3.097     -83.345
  O        2.479       0.053     -80.432
  O        1.075      -0.827     -82.420
  H       -0.675       6.800     -83.130
  H        0.982      -1.620     -81.837
  H       -5.444       2.281     -83.389
  H       -3.168       2.603     -82.431
  H       -0.604       4.553     -84.238
  H       -2.040       4.852     -81.536
  H        0.118       5.082     -80.559
  H        1.326       3.213     -82.395
  H       -6.378       3.993     -86.556
  H        1.120       2.599     -80.057
  H       -6.953       2.906     -85.325
  H       -0.660       2.720     -80.143
  P        2.293       6.188     -81.311
  C        3.706       6.392     -83.473
  O        3.344       6.980     -82.233
  O        3.075       4.857     -80.891
  O        1.796       6.941     -80.120
  H        2.809       4.579     -79.996
  H        4.407       7.024     -83.976
  H        2.833       6.273     -84.080
  H        4.151       5.435     -83.297

 6  7  8  9  10  11  12  13  14  15  16  26  30  31  32  33  35 0
 6-311+G(2d,p)
 ****
 37  38 0
 6-311+G(2d,p)
 ****
 1  2  3  4  5  17  18  19  20  21  22  23  24  25 0
 3-21G
 ****
 27  28  29  34  36  39  40  41  42  43  44  45  46 0
 3-21G
 ****


