%nproc=1
%NoSave
%Mem=1900MB
#P OB98/GEN NMR

erre ene a

0 1
  C      328.076    -319.613    -497.712
  O      328.469    -319.029    -498.956
  P      327.564    -317.867    -499.581
  C      328.704    -315.890    -498.393
  O      327.512    -316.652    -498.538
  C      328.702    -314.690    -499.339
  O      327.690    -313.729    -498.979
  C      330.015    -313.920    -499.331
  O      331.019    -314.627    -500.034
  C      329.586    -312.602    -499.963
  O      329.559    -312.698    -501.392
  C      328.152    -312.428    -499.415
  N      328.058    -311.443    -498.347
  C      327.896    -310.113    -498.752
  O      327.876    -309.828    -499.951
  N      327.771    -309.147    -497.786
  C      327.814    -309.471    -496.533
  N      327.684    -308.469    -495.620
  C      327.999    -310.858    -496.064
  C      328.120    -311.783    -497.017
  O      326.243    -318.299    -500.124
  O      328.497    -317.283    -500.748
  H      330.464    -312.945    -501.665
  H      327.932    -316.939    -501.466
  H      328.026    -311.081    -495.008
  H      328.260    -312.825    -496.759
  H      327.475    -312.115    -500.215
  H      330.275    -311.787    -499.706
  H      330.338    -313.748    -498.295
  H      328.493    -315.057    -500.351
  H      327.573    -307.526    -495.976
  H      329.571    -316.527    -498.596
  H      327.656    -308.628    -494.626
  H      328.791    -315.567    -497.346
  P      332.473    -314.724    -499.360
  C      332.178    -317.002    -498.159
  O      332.336    -315.603    -498.027
  O      332.703    -313.240    -498.801
  O      333.572    -315.124    -500.289
  H      333.651    -313.013    -498.858
  H      332.417    -317.474    -497.205
  H      332.842    -317.408    -498.927
  H      331.140    -317.233    -498.416
  H      328.781    -320.368    -497.434
  H      327.105    -320.052    -497.815
  H      328.047    -318.856    -496.956

 3  4  5  6  7  8  9  10  11  12  13  23  27  28  29  30  32 0
 6-311+G(2d,p)
 ****
 34  35 0
 6-311+G(2d,p)
 ****
 1  2  14  15  16  17  18  19  20  21  22  24  25  26 0
 3-21G
 ****
 31  33  36  37  38  39  40  41  42  43  44  45  46 0
 3-21G
 ****


