%nproc=1
%NoSave
%Mem=1900MB
#P OB98/GEN NMR

erre ene a

0 1
  C     -216.177      58.233      56.510
  O     -215.094      57.771      55.692
  P     -213.629      58.430      55.711
  C     -212.463      60.501      54.684
  O     -213.685      59.798      54.874
  C     -212.711      61.867      54.041
  O     -213.068      61.706      52.646
  C     -213.869      62.663      54.630
  O     -213.556      63.208      55.900
  C     -214.102      63.706      53.538
  O     -213.215      64.824      53.684
  C     -213.754      62.923      52.257
  N     -214.919      62.626      51.439
  C     -215.377      63.652      50.604
  O     -214.854      64.766      50.641
  N     -216.427      63.388      49.760
  C     -217.034      62.244      49.819
  N     -218.057      62.035      48.945
  C     -216.668      61.186      50.781
  C     -215.611      61.440      51.551
  O     -212.541      57.501      55.272
  O     -213.401      58.911      57.222
  H     -212.446      58.929      57.418
  H     -212.307      64.464      53.704
  H     -217.228      60.262      50.827
  H     -215.265      60.711      52.276
  H     -213.027      63.482      51.658
  H     -215.123      64.099      53.557
  H     -214.751      62.014      54.708
  H     -211.781      62.448      54.099
  H     -218.275      62.777      48.292
  H     -211.820      59.909      54.022
  H     -218.578      61.173      48.895
  H     -211.956      60.609      55.651
  P     -213.934      62.321      57.184
  C     -216.122      61.355      58.193
  O     -215.534      62.265      57.285
  O     -213.506      63.248      58.419
  O     -213.256      60.992      57.240
  H     -213.115      62.695      59.122
  H     -217.097      61.747      58.502
  H     -215.501      61.209      59.082
  H     -216.272      60.393      57.694
  H     -217.046      57.638      56.320
  H     -216.387      59.256      56.279
  H     -215.906      58.149      57.542

 3  4  5  6  7  8  9  10  11  12  13  24  27  28  29  30  32 0
 6-311+G(2d,p)
 ****
 34  35 0
 6-311+G(2d,p)
 ****
 1  2  14  15  16  17  18  19  20  21  22  23  25  26 0
 3-21G
 ****
 31  33  36  37  38  39  40  41  42  43  44  45  46 0
 3-21G
 ****


