%nproc=1
%NoSave
%Mem=1900MB
#P OB98/GEN NMR

erre ene a

0 1
  C     1150.480    -921.640    -724.551
  O     1151.196    -921.124    -723.446
  P     1152.487    -921.960    -722.944
  C     1153.442    -920.872    -720.725
  O     1153.409    -920.901    -722.150
  C     1154.525    -919.940    -720.235
  O     1155.844    -920.477    -720.592
  C     1154.525    -918.559    -720.854
  O     1153.496    -917.729    -720.278
  C     1155.938    -918.068    -720.607
  O     1156.071    -917.592    -719.247
  C     1156.744    -919.351    -720.808
  N     1157.385    -919.451    -722.107
  C     1158.493    -918.620    -722.314
  O     1158.907    -917.834    -721.449
  N     1159.058    -918.694    -723.567
  C     1158.630    -919.450    -724.611
  O     1159.171    -919.441    -725.704
  C     1157.439    -920.276    -724.341
  C     1156.864    -920.260    -723.138
  O     1153.250    -922.203    -724.316
  O     1152.125    -923.199    -722.169
  H     1153.050    -921.525    -724.979
  H     1155.347    -916.921    -719.103
  H     1159.871    -918.110    -723.714
  H     1157.065    -920.879    -725.164
  H     1156.007    -920.861    -722.922
  H     1157.513    -919.457    -720.031
  H     1156.236    -917.233    -721.258
  H     1154.344    -918.616    -721.950
  H     1154.484    -919.872    -719.150
  H     1153.630    -921.881    -720.353
  H     1152.454    -920.530    -720.339
  P     1152.641    -916.799    -721.273
  C     1153.170    -914.344    -720.540
  O     1152.309    -915.458    -720.455
  O     1151.242    -917.577    -721.324
  O     1153.304    -916.596    -722.622
  H     1150.964    -917.893    -720.471
  H     1152.621    -913.441    -720.222
  H     1153.555    -914.175    -721.533
  H     1154.021    -914.483    -719.844
  H     1149.657    -920.994    -724.776
  H     1150.113    -922.616    -724.313
  H     1151.129    -921.700    -725.400

 3  4  5  6  7  8  9  10  11  12  13  24  28  29  30  31  32 0
 6-311+G(2d,p)
 ****
 33  34 0
 6-311+G(2d,p)
 ****
 1  2  14  15  16  17  18  19  20  21  22  23  25  26  27 0
 3-21G
 ****
 35  36  37  38  39  40  41  42  43  44  45 0
 3-21G
 ****


