%nproc=1
%NoSave
%Mem=1900MB
#P OB98/GEN NMR

erre ene a

0 1
  C      -33.786    -165.592      42.615
  O      -34.088    -166.936      42.992
  P      -34.549    -167.918      41.809
  C      -32.152    -168.763      41.281
  O      -33.468    -169.099      41.697
  C      -31.754    -169.574      40.047
  O      -30.650    -168.983      39.334
  C      -31.323    -170.998      40.374
  O      -32.462    -171.815      40.579
  C      -30.531    -171.376      39.128
  O      -31.400    -171.841      38.075
  C      -29.870    -170.046      38.731
  N      -25.485    -167.713      37.711
  C      -26.676    -167.711      37.009
  N      -26.709    -166.958      35.888
  N      -27.736    -168.382      37.374
  C      -27.559    -169.089      38.515
  C      -26.439    -169.150      39.314
  C      -25.272    -168.403      38.897
  O      -24.204    -168.356      39.495
  N      -26.658    -169.924      40.425
  C      -27.863    -170.427      40.229
  N      -28.478    -169.902      39.118
  O      -34.307    -167.044      40.490
  O      -35.970    -168.360      41.923
  H      -30.861    -172.268      37.385
  H      -35.165    -166.793      40.098
  H      -24.696    -167.185      37.380
  H      -28.344    -171.150      40.870
  H      -29.901    -169.892      37.645
  H      -29.827    -172.188      39.325
  H      -25.930    -166.413      35.549
  H      -30.666    -171.002      41.252
  H      -27.575    -166.935      35.363
  H      -32.620    -169.595      39.372
  H      -31.444    -168.949      42.089
  H      -32.114    -167.688      41.070
  P      -32.562    -172.626      41.957
  C      -34.611    -171.635      43.206
  O      -34.106    -172.666      42.380
  O      -31.897    -171.626      43.017
  O      -31.864    -173.946      41.952
  H      -31.298    -172.123      43.604
  H      -35.671    -171.491      42.982
  H      -34.082    -170.691      43.046
  H      -34.509    -171.930      44.254
  H      -33.493    -165.036      43.481
  H      -34.652    -165.141      42.178
  H      -32.987    -165.592      41.904

 3  4  5  6  7  8  9  10  11  12  23  26  30  31 0
 6-311+G(2d,p)
 ****
 33  35  36  37  38 0
 6-311+G(2d,p)
 ****
 1  2  13  14  15  16  17  18  19  20  21  22  24  25 0
 3-21G
 ****
 27  28  29  32  34  39  40  41  42  43  44  45  46  47  48  49 0
 3-21G
 ****


