%nproc=1
%NoSave
%Mem=1900MB
#P OB98/GEN NMR

erre ene a

0 1
  C        5.835     -55.163      22.473
  O        4.919     -54.827      23.495
  H        6.832     -55.254      22.910
  H        5.853     -54.368      21.723
  H        5.567     -56.113      22.005
  P        3.360     -54.944      23.145
  C        3.256     -52.804      21.689
  O        3.139     -54.217      21.729
  C        1.883     -52.163      21.484
  O        2.001     -50.732      21.700
  C        1.304     -52.376      20.081
  O       -0.107     -52.585      20.190
  C        1.572     -51.054      19.383
  O        0.661     -50.803      18.315
  C        1.455     -50.072      20.543
  N        1.052     -45.518      18.426
  C        0.100     -46.500      18.619
  N       -1.146     -46.233      18.175
  N        0.349     -47.646      19.197
  C        1.630     -47.761      19.624
  C        2.665     -46.865      19.488
  C        2.382     -45.613      18.820
  O        3.187     -44.714      18.599
  N        3.826     -47.363      20.022
  C        3.493     -48.557      20.479
  N        2.172     -48.839      20.266
  O        2.677     -53.943      24.191
  O        2.782     -56.316      23.246
  H        0.641     -49.833      18.167
  H        2.105     -54.445      24.802
  H        0.809     -44.660      17.962
  H        4.166     -49.253      20.959
  H        0.415     -49.802      20.760
  H        2.588     -51.055      18.970
  H       -1.420     -45.354      17.764
  H        1.756     -53.218      19.553
  H       -1.870     -46.923      18.338
  H        1.201     -52.544      22.253
  H        3.915     -52.525      20.861
  H        3.695     -52.450      22.628
  P       -0.632     -54.095      20.045
  C       -0.483     -54.222      17.463
  O       -0.007     -54.720      18.704
  O       -2.181     -53.909      19.688
  O       -0.450     -54.918      21.277
  H       -2.730     -54.162      20.453
  H        0.017     -54.725      16.662
  H       -0.288     -53.172      17.402
  H       -1.537     -54.394      17.390

 6  7  8  9  10  11  12  13  14  15  26  29  33  34 0
 6-311+G(2d,p)
 ****
 36  38  39  40  41 0
 6-311+G(2d,p)
 ****
 1  2  3  4  5  16  17  18  19  20  21  22  23  24  25 0
 3-21G
 ****
 27  28  30  31  32  35  37  42  43  44  45  46  47 0
 3-21G
 ****
 48  49 0
 3-21G
 ****


