%nproc=1
%NoSave
%Mem=1900MB
#P OB98/GEN NMR

erre ene a

0 1
  C      -37.257    -281.995     295.174
  O      -38.342    -282.138     294.278
  P      -39.744    -281.415     294.569
  C      -39.815    -280.010     292.407
  O      -39.659    -279.994     293.825
  C      -38.552    -279.494     291.715
  O      -37.513    -280.494     291.747
  C      -38.748    -279.146     290.245
  O      -39.402    -277.899     290.113
  C      -37.306    -279.162     289.746
  O      -36.646    -277.917     290.033
  C      -36.689    -280.311     290.577
  N      -36.560    -281.542     289.805
  C      -35.728    -281.472     288.684
  O      -35.177    -280.413     288.375
  N      -35.570    -282.595     287.902
  C      -36.221    -283.680     288.206
  N      -36.037    -284.758     287.392
  C      -37.130    -283.788     289.366
  C      -37.253    -282.691     290.110
  O      -40.147    -281.361     296.007
  O      -40.766    -282.238     293.650
  H      -37.164    -277.221     289.579
  H      -40.964    -283.130     294.040
  H      -37.651    -284.707     289.568
  H      -37.905    -282.675     290.976
  H      -35.694    -280.028     290.939
  H      -37.250    -279.312     288.664
  H      -39.316    -279.939     289.749
  H      -38.197    -278.616     292.277
  H      -35.426    -284.642     286.596
  H      -40.659    -279.366     292.146
  H      -36.511    -285.638     287.521
  H      -40.047    -281.034     292.083
  P      -40.933    -277.852     289.639
  C      -41.858    -276.560     291.656
  O      -41.854    -277.786     290.949
  O      -41.325    -278.885     288.634
  O      -41.084    -276.375     289.020
  H      -41.578    -276.435     288.179
  H      -42.736    -276.527     292.298
  H      -41.881    -275.708     290.972
  H      -40.955    -276.499     292.283
  H      -36.417    -282.548     294.808
  H      -37.538    -282.368     296.137
  H      -36.995    -280.961     295.255

 3  4  5  6  7  8  9  10  11  12  13  23  27  28  29  30  32 0
 6-311+G(2d,p)
 ****
 34  35 0
 6-311+G(2d,p)
 ****
 1  2  14  15  16  17  18  19  20  21  22  24  25  26 0
 3-21G
 ****
 31  33  36  37  38  39  40  41  42  43  44  45  46 0
 3-21G
 ****


