%nproc=1
%NoSave
%Mem=1900MB
#P OB98/GEN NMR

erre ene a

0 1
  C     -248.458     336.107    -609.922
  O     -247.690     335.945    -608.748
  H     -249.232     336.854    -609.734
  H     -248.935     335.158    -610.187
  H     -247.839     336.452    -610.753
  P     -246.298     335.162    -608.835
  C     -247.602     333.096    -608.000
  O     -246.641     333.599    -608.921
  C     -248.067     331.689    -608.410
  O     -246.990     331.031    -609.123
  C     -248.395     330.829    -607.186
  O     -249.377     329.839    -607.478
  C     -247.071     330.142    -606.891
  O     -247.217     328.935    -606.155
  C     -246.518     329.942    -608.303
  N     -242.361     326.992    -608.312
  C     -243.670     326.650    -608.044
  N     -243.902     325.353    -607.749
  N     -244.658     327.508    -608.051
  C     -244.265     328.780    -608.294
  C     -242.999     329.251    -608.545
  C     -241.919     328.288    -608.573
  O     -240.732     328.536    -608.780
  N     -242.989     330.610    -608.733
  C     -244.248     330.967    -608.597
  N     -245.069     329.886    -608.351
  O     -245.691     335.305    -607.356
  O     -245.338     335.665    -609.873
  H     -246.329     328.573    -605.997
  H     -244.726     335.182    -607.376
  H     -241.644     326.294    -608.321
  H     -244.629     331.988    -608.673
  H     -246.900     329.008    -608.741
  H     -246.463     330.816    -606.291
  H     -243.150     324.712    -607.541
  H     -248.726     331.420    -606.336
  H     -244.780     325.146    -607.257
  H     -248.912     331.764    -609.108
  H     -248.442     333.796    -608.000
  H     -247.192     333.087    -606.991
  P     -250.918     330.182    -607.202
  C     -251.318     328.795    -604.985
  O     -251.239     330.039    -605.647
  O     -251.703     328.955    -607.868
  O     -251.365     331.499    -607.761
  H     -252.247     329.261    -608.619
  H     -251.544     328.955    -603.951
  H     -250.381     328.285    -605.071
  H     -252.089     328.202    -605.431

 6  7  8  9  10  11  12  13  14  15  26  29  33  34 0
 6-311+G(2d,p)
 ****
 36  38  39  40  41 0
 6-311+G(2d,p)
 ****
 1  2  3  4  5  16  17  18  19  20  21  22  23  24  25 0
 3-21G
 ****
 27  28  30  31  32  35  37  42  43  44  45  46  47 0
 3-21G
 ****
 48  49 0
 3-21G
 ****


