%nproc=1
%NoSave
%Mem=1900MB
#P OB98/GEN NMR

erre ene a

0 1
  C      161.719    -188.348      -8.177
  O      163.017    -188.929      -8.333
  P      163.058    -190.525      -8.521
  C      162.827    -190.559     -11.100
  O      163.655    -190.831      -9.980
  C      163.657    -190.216     -12.343
  O      164.656    -189.195     -12.038
  C      164.409    -191.415     -12.934
  O      164.435    -191.234     -14.356
  C      165.813    -191.235     -12.384
  O      166.768    -191.979     -13.137
  C      165.934    -189.714     -12.477
  N      170.861    -190.078     -11.439
  C      170.061    -190.865     -12.241
  N      170.673    -191.870     -12.906
  N      168.775    -190.685     -12.381
  C      168.303    -189.620     -11.689
  C      168.999    -188.755     -10.871
  C      170.416    -188.986     -10.698
  O      171.172    -188.316     -10.005
  N      168.177    -187.772     -10.366
  C      166.980    -188.095     -10.828
  N      167.013    -189.168     -11.677
  O      161.513    -190.916      -8.646
  O      163.725    -191.243      -7.395
  H      166.944    -191.481     -13.966
  H      161.184    -191.269      -7.800
  H      171.846    -190.274     -11.351
  H      166.066    -187.572     -10.598
  H      166.111    -189.373     -13.506
  H      165.857    -191.569     -11.343
  H      171.672    -192.034     -12.882
  H      163.977    -192.388     -12.683
  H      170.120    -192.439     -13.535
  H      162.983    -189.795     -13.101
  H      162.159    -189.721     -10.877
  H      162.179    -191.422     -11.286
  P      163.069    -191.455     -15.166
  C      161.159    -189.993     -14.210
  O      162.251    -190.079     -15.104
  O      162.235    -192.431     -14.203
  O      163.240    -192.055     -16.524
  H      161.751    -193.083     -14.746
  H      161.012    -188.943     -13.933
  H      161.331    -190.574     -13.300
  H      160.253    -190.354     -14.703
  H      161.814    -187.289      -8.061
  H      161.245    -188.761      -7.311
  H      161.127    -188.560      -9.043

 3  4  5  6  7  8  9  10  11  12  23  26  30  31 0
 6-311+G(2d,p)
 ****
 33  35  36  37  38 0
 6-311+G(2d,p)
 ****
 1  2  13  14  15  16  17  18  19  20  21  22  24  25 0
 3-21G
 ****
 27  28  29  32  34  39  40  41  42  43  44  45  46  47  48  49 0
 3-21G
 ****


