%nproc=1
%NoSave
%Mem=1900MB
#P OB98/GEN NMR

erre ene a

0 1
  C      554.799      24.014    -392.971
  O      555.844      23.681    -392.030
  P      556.209      22.135    -391.779
  C      558.180      22.008    -393.501
  O      556.898      21.544    -393.105
  C      559.248      21.452    -392.564
  O      559.230      20.005    -392.570
  C      560.677      21.827    -392.937
  O      560.989      23.168    -392.567
  C      561.476      20.789    -392.163
  O      561.666      21.194    -390.792
  C      560.557      19.550    -392.243
  N      561.036      18.558    -393.208
  C      561.369      17.302    -392.711
  O      561.328      17.029    -391.504
  N      561.793      16.393    -393.623
  C      561.971      16.609    -394.967
  O      562.381      15.740    -395.733
  C      561.688      17.973    -395.424
  C      561.245      18.873    -394.534
  O      554.765      21.441    -391.812
  O      556.907      21.835    -390.491
  H      560.783      21.165    -390.374
  H      554.774      20.636    -391.265
  H      562.013      15.453    -393.288
  H      561.839      18.201    -396.479
  H      561.038      19.883    -394.867
  H      560.485      19.064    -391.262
  H      562.471      20.629    -392.579
  H      560.827      21.667    -394.013
  H      559.025      21.780    -391.537
  H      558.192      23.103    -393.452
  H      558.372      21.703    -394.539
  P      561.991      23.961    -393.543
  C      560.115      24.520    -395.273
  O      561.334      23.870    -394.986
  O      563.235      22.959    -393.570
  O      562.316      25.333    -393.041
  H      562.963      22.023    -393.518
  H      559.999      25.448    -394.691
  H      559.285      23.840    -395.032
  H      560.060      24.762    -396.343
  H      554.686      25.077    -393.017
  H      553.878      23.571    -392.653
  H      555.059      23.641    -393.940

 3  4  5  6  7  8  9  10  11  12  13  23  28  29  30  31  32 0
 6-311+G(2d,p)
 ****
 33  34 0
 6-311+G(2d,p)
 ****
 1  2  14  15  16  17  18  19  20  21  22  24  25  26 0
 3-21G
 ****
 27  35  36  37  38  39  40  41  42  43  44  45 0
 3-21G
 ****


