%nproc=1
%NoSave
%Mem=1900MB
#P OB98/GEN NMR

erre ene a

0 1
  C     -109.721    1053.315     191.991
  O     -110.764    1053.876     192.784
  P     -112.165    1053.128     192.877
  C     -111.390    1051.886     195.023
  O     -112.423    1052.688     194.398
  C     -111.504    1051.963     196.545
  O     -111.007    1053.182     197.070
  C     -112.958    1051.850     197.048
  O     -113.427    1050.528     196.917
  C     -112.808    1052.361     198.471
  O     -112.348    1051.322     199.361
  C     -111.704    1053.457     198.314
  N     -112.238    1054.819     198.328
  C     -112.432    1055.381     199.590
  O     -112.216    1054.713     200.618
  N     -112.922    1056.644     199.673
  C     -113.168    1057.330     198.584
  N     -113.655    1058.599     198.714
  C     -112.992    1056.769     197.229
  C     -112.536    1055.533     197.162
  O     -112.368    1052.015     191.877
  O     -113.242    1054.295     192.669
  H     -112.208    1051.760     200.217
  H     -114.026    1053.939     192.248
  H     -113.205    1057.365     196.348
  H     -112.356    1055.046     196.234
  H     -110.978    1053.375     199.115
  H     -113.772    1052.741     198.846
  H     -113.603    1052.529     196.450
  H     -110.905    1051.125     196.963
  H     -113.762    1058.965     199.675
  H     -110.400    1052.250     194.706
  H     -113.823    1059.218     197.933
  H     -111.464    1050.850     194.654
  P     -114.905    1050.331     196.310
  C     -114.076    1049.060     194.186
  O     -114.869    1049.017     195.377
  O     -115.006    1051.543     195.249
  O     -116.013    1050.355     197.296
  H     -115.949    1051.831     195.215
  H     -113.893    1048.014     193.856
  H     -113.119    1049.541     194.369
  H     -114.619    1049.603     193.397
  H     -108.857    1053.944     192.042
  H     -110.047    1053.239     190.975
  H     -109.476    1052.341     192.361

 3  4  5  6  7  8  9  10  11  12  13  23  27  28  29  30  32 0
 6-311+G(2d,p)
 ****
 34  35 0
 6-311+G(2d,p)
 ****
 1  2  14  15  16  17  18  19  20  21  22  24  25  26 0
 3-21G
 ****
 31  33  36  37  38  39  40  41  42  43  44  45  46 0
 3-21G
 ****


