%nproc=1
%NoSave
%Mem=1900MB
#P OB98/GEN NMR

erre ene a

0 1
  C     -130.285    -261.961    -428.790
  O     -129.153    -261.535    -428.052
  P     -127.803    -262.387    -428.168
  C     -126.700    -261.064    -430.117
  O     -127.291    -262.283    -429.686
  C     -125.191    -261.249    -430.311
  O     -124.558    -261.464    -429.013
  C     -124.816    -262.437    -431.204
  O     -123.628    -262.076    -431.926
  C     -124.487    -263.519    -430.193
  O     -123.697    -264.567    -430.730
  C     -123.792    -262.676    -429.118
  N     -123.694    -263.370    -427.832
  C     -122.800    -264.431    -427.746
  O     -122.100    -264.820    -428.680
  N     -122.780    -265.095    -426.549
  C     -123.603    -264.867    -425.485
  O     -123.613    -265.573    -424.485
  C     -124.528    -263.727    -425.632
  C     -124.528    -263.045    -426.782
  O     -128.309    -263.902    -428.043
  O     -126.769    -262.061    -427.142
  H     -122.985    -264.162    -431.253
  H     -128.163    -264.236    -427.138
  H     -122.128    -265.864    -426.462
  H     -125.183    -263.504    -424.803
  H     -125.215    -262.217    -426.921
  H     -122.788    -262.395    -429.453
  H     -125.419    -263.958    -429.816
  H     -125.605    -262.734    -431.901
  H     -124.778    -260.317    -430.719
  H     -126.872    -260.295    -429.366
  H     -127.173    -260.739    -431.049
  P     -123.400    -262.726    -433.378
  C     -125.259    -261.452    -434.696
  O     -124.808    -262.663    -434.134
  O     -123.236    -264.273    -432.987
  O     -122.222    -262.169    -434.106
  H     -123.882    -264.565    -432.322
  H     -124.434    -260.850    -435.080
  H     -125.796    -260.880    -433.935
  H     -125.947    -261.675    -435.516
  H     -131.101    -261.293    -428.608
  H     -130.558    -262.950    -428.485
  H     -130.051    -261.962    -429.834

 3  4  5  6  7  8  9  10  11  12  13  23  28  29  30  31  32 0
 6-311+G(2d,p)
 ****
 33  34 0
 6-311+G(2d,p)
 ****
 1  2  14  15  16  17  18  19  20  21  22  24  25  26 0
 3-21G
 ****
 27  35  36  37  38  39  40  41  42  43  44  45 0
 3-21G
 ****


