%nproc=1
%NoSave
%Mem=1900MB
#P OB98/GEN NMR

erre ene a

0 1
  C      215.524    -215.752     194.988
  O      214.874    -216.172     193.803
  H      214.766    -215.577     195.755
  H      216.074    -214.822     194.811
  H      216.205    -216.533     195.333
  P      215.816    -216.450     192.530
  C      215.299    -218.967     192.760
  O      216.313    -217.968     192.731
  C      215.848    -220.263     193.368
  O      216.286    -219.987     194.720
  C      214.808    -221.389     193.433
  O      215.449    -222.638     193.151
  C      214.359    -221.369     194.889
  O      213.860    -222.630     195.317
  C      215.632    -220.912     195.602
  N      215.653    -221.565     200.665
  C      216.139    -222.320     199.657
  N      216.111    -222.063     198.324
  C      215.528    -220.860     198.091
  C      215.000    -219.990     199.018
  C      215.059    -220.388     200.367
  N      214.549    -219.632     201.406
  N      214.463    -218.880     198.383
  C      214.683    -219.087     197.101
  N      215.324    -220.278     196.875
  O      216.900    -215.448     192.288
  O      214.740    -216.592     191.351
  H      214.610    -223.259     195.361
  H      213.981    -217.139     191.631
  H      216.609    -223.253     199.948
  H      214.405    -218.408     196.299
  H      216.320    -221.747     195.813
  H      213.561    -220.626     195.009
  H      213.977    -221.239     192.745
  H      216.736    -220.573     192.797
  H      214.938    -219.162     191.744
  H      214.650    -219.989     202.344
  H      214.121    -218.741     201.195
  H      214.467    -218.589     193.358
  P      215.360    -223.210     191.669
  C      217.879    -223.273     191.105
  O      216.618    -222.674     190.820
  O      214.035    -223.086     190.985
  O      215.734    -224.768     191.874
  H      215.185    -225.303     191.262
  H      218.631    -222.836     190.481
  H      217.825    -224.325     190.915
  H      218.128    -223.108     192.132

 6  7  8  9  10  11  12  13  14  15  25  28  32  33  34  35 0
 6-311+G(2d,p)
 ****
 36  39  40 0
 6-311+G(2d,p)
 ****
 1  2  3  4  5  16  17  18  19  20  21  22  23  24 0
 3-21G
 ****
 26  27  29  30  31  37  38  41  42  43  44  45  46  47 0
 3-21G
 ****
 48 0
 3-21G
 ****


