%nproc=1
%NoSave
%Mem=1900MB
#P OB98/GEN NMR

erre ene a

0 1
  C       14.650    -131.936      95.628
  O       15.808    -132.249      94.883
  H       14.533    -132.679      96.423
  H       13.769    -131.978      94.982
  H       14.730    -130.945      96.085
  P       16.374    -131.174      93.836
  C       18.097    -129.566      94.893
  O       17.874    -130.842      94.308
  C       19.469    -129.534      95.571
  O       19.456    -130.492      96.675
  C       20.631    -129.917      94.630
  O       21.790    -129.162      95.004
  C       20.829    -131.379      94.978
  O       22.098    -131.844      94.591
  C       20.592    -131.360      96.486
  N       20.359    -132.705      97.010
  C       21.392    -133.282      97.739
  O       22.473    -132.729      97.949
  N       21.182    -134.565      98.166
  C       20.110    -135.347      97.848
  O       20.005    -136.514      98.191
  C       19.070    -134.701      97.027
  C       19.235    -133.426      96.656
  O       15.515    -129.975      93.602
  O       16.621    -132.017      92.496
  H       22.793    -131.275      94.979
  H       16.647    -131.424      91.722
  H       21.919    -134.994      98.705
  H       18.211    -135.294      96.743
  H       18.498    -132.924      96.039
  H       21.444    -130.911      97.010
  H       20.078    -131.992      94.466
  H       20.400    -129.752      93.576
  H       19.628    -128.542      96.015
  H       17.309    -129.385      95.634
  H       18.043    -128.794      94.118
  P       21.997    -127.640      94.540
  C       21.444    -125.978      96.418
  O       22.471    -126.730      95.780
  O       20.845    -127.071      93.773
  O       23.299    -127.688      93.601
  H       23.130    -127.170      92.790
  H       21.864    -125.412      97.223
  H       20.699    -126.644      96.801
  H       20.997    -125.312      95.710

 6  7  8  9  10  11  12  13  14  15  16  26  31  32  33  34  35 0
 6-311+G(2d,p)
 ****
 36  37 0
 6-311+G(2d,p)
 ****
 1  2  3  4  5  17  18  19  20  21  22  23  24  25 0
 3-21G
 ****
 27  28  29  30  38  39  40  41  42  43  44  45 0
 3-21G
 ****


