%nproc=1
%NoSave
%Mem=1900MB
#P OB98/GEN NMR

erre ene a

0 1
  C      174.488    -237.655     449.808
  O      175.323    -236.834     449.017
  H      173.446    -237.464     449.535
  H      174.623    -237.429     450.870
  H      174.714    -238.711     449.622
  P      176.895    -236.892     449.344
  C      176.579    -235.210     451.312
  O      176.973    -236.514     450.904
  C      176.871    -235.027     452.798
  O      176.850    -233.630     453.156
  C      175.862    -235.701     453.721
  O      176.070    -237.097     453.841
  C      176.148    -234.969     455.022
  O      177.362    -235.479     455.600
  C      176.340    -233.520     454.511
  N      175.102    -232.738     454.539
  C      174.791    -232.102     455.747
  O      175.521    -232.222     456.728
  N      173.625    -231.371     455.826
  C      172.852    -231.273     454.795
  N      171.704    -230.547     454.932
  C      173.152    -231.908     453.501
  C      174.275    -232.619     453.441
  O      177.480    -235.581     448.636
  O      177.598    -238.157     448.971
  H      177.527    -234.962     456.411
  H      178.427    -235.460     448.884
  H      172.471    -231.812     452.666
  H      174.564    -233.119     452.523
  H      177.098    -232.998     455.106
  H      175.359    -235.094     455.764
  H      174.828    -235.479     453.418
  H      177.891    -235.397     452.990
  H      171.495    -230.174     455.849
  H      175.506    -235.096     451.122
  H      170.962    -230.566     454.249
  H      177.127    -234.454     450.740
  P      174.815    -238.002     454.283
  C      176.010    -238.523     456.532
  O      174.823    -238.069     455.890
  O      175.263    -239.476     453.849
  O      173.505    -237.609     453.666
  H      174.509    -239.982     453.493
  H      175.868    -238.514     457.592
  H      176.824    -237.877     456.276
  H      176.231    -239.519     456.210

 6  7  8  9  10  11  12  13  14  15  16  26  30  31  32  33  35 0
 6-311+G(2d,p)
 ****
 37  38 0
 6-311+G(2d,p)
 ****
 1  2  3  4  5  17  18  19  20  21  22  23  24  25 0
 3-21G
 ****
 27  28  29  34  36  39  40  41  42  43  44  45  46 0
 3-21G
 ****


