%nproc=1
%NoSave
%Mem=1900MB
#P OB98/GEN NMR

erre ene a

0 1
  C     -333.848     -95.897     763.255
  O     -333.803     -96.218     761.883
  H     -334.619     -96.487     763.758
  H     -332.878     -96.142     763.705
  H     -334.040     -94.829     763.386
  P     -335.151     -95.979     761.040
  C     -335.933     -98.446     760.818
  O     -336.172     -97.174     761.411
  C     -337.027     -99.416     761.224
  O     -338.272     -98.647     761.402
  C     -337.323    -100.538     760.179
  O     -337.161    -101.820     760.797
  C     -338.786    -100.360     759.812
  O     -339.497    -101.589     759.695
  C     -339.345     -99.504     760.965
  N     -344.400     -99.588     760.395
  C     -343.579    -100.326     761.164
  N     -342.253    -100.182     761.358
  C     -341.786     -99.126     760.666
  C     -342.500     -98.262     759.854
  C     -343.879     -98.528     759.703
  N     -344.702     -97.800     758.865
  N     -341.669     -97.313     759.285
  C     -340.466     -97.612     759.735
  N     -340.481     -98.719     760.543
  O     -334.712     -96.316     759.534
  O     -335.725     -94.603     761.150
  H     -340.444    -101.364     759.635
  H     -335.016     -95.599     758.938
  H     -344.056    -101.149     761.693
  H     -339.539     -97.106     759.474
  H     -339.653    -100.132     761.825
  H     -338.857     -99.817     758.870
  H     -336.689    -100.454     759.293
  H     -336.789     -99.853     762.190
  H     -334.966     -98.838     761.156
  H     -345.642     -98.144     758.742
  H     -344.297     -97.088     758.283
  H     -335.882     -98.318     759.726
  P     -335.821    -102.633     760.422
  C     -336.694    -103.932     758.329
  O     -335.846    -102.889     758.841
  O     -336.105    -104.088     761.034
  O     -334.572    -102.024     760.964
  H     -335.256    -104.528     761.257
  H     -336.600    -103.978     757.264
  H     -337.711    -103.724     758.589
  H     -336.402    -104.870     758.753

 6  7  8  9  10  11  12  13  14  15  25  28  32  33  34  35 0
 6-311+G(2d,p)
 ****
 36  39  40 0
 6-311+G(2d,p)
 ****
 1  2  3  4  5  16  17  18  19  20  21  22  23  24 0
 3-21G
 ****
 26  27  29  30  31  37  38  41  42  43  44  45  46  47  48 0
 3-21G
 ****


