%nproc=1
%NoSave
%Mem=1900MB
#P OB98/GEN NMR

erre ene a

0 1
  C     -678.895    -888.590     -73.294
  O     -677.702    -888.770     -74.011
  P     -677.463    -890.100     -74.884
  C     -677.445    -892.680     -74.351
  O     -677.339    -891.340     -73.879
  C     -676.478    -893.560     -73.545
  O     -676.577    -893.250     -72.136
  C     -676.816    -895.050     -73.721
  O     -676.033    -895.620     -74.752
  C     -676.522    -895.610     -72.345
  O     -675.091    -895.850     -72.203
  C     -676.958    -894.440     -71.423
  N     -678.393    -894.340     -71.064
  C     -679.001    -895.360     -70.367
  O     -678.426    -896.360     -69.939
  N     -680.360    -895.210     -70.140
  C     -681.104    -894.110     -70.529
  O     -682.331    -894.090     -70.549
  C     -680.349    -892.960     -71.035
  C     -679.058    -893.140     -71.317
  O     -675.967    -889.930     -75.433
  O     -678.447    -890.340     -75.991
  H     -674.837    -896.470     -72.886
  H     -675.976    -889.590     -76.341
  H     -680.854    -895.990     -69.740
  H     -680.901    -892.030     -71.221
  H     -678.480    -892.300     -71.711
  H     -676.388    -894.470     -70.468
  H     -677.008    -896.570     -72.205
  H     -677.886    -895.170     -73.937
  H     -675.471    -893.370     -73.885
  H     -677.226    -892.730     -75.421
  H     -678.491    -893.030     -74.219
  P     -676.351    -897.120     -75.254
  C     -676.117    -899.450     -74.216
  O     -675.871    -898.070     -74.059
  O     -675.823    -897.460     -76.615
  O     -677.959    -897.190     -75.199
  H     -678.333    -897.020     -76.095
  H     -675.599    -900.000     -73.436
  H     -675.779    -899.790     -75.201
  H     -677.216    -899.610     -74.131
  H     -678.865    -887.652     -72.781
  H     -679.007    -889.382     -72.583
  H     -679.723    -888.599     -73.971

 3  4  5  6  7  8  9  10  11  12  13  23  28  29  30  31  32 0
 6-311+G(2d,p)
 ****
 33  34 0
 6-311+G(2d,p)
 ****
 1  2  14  15  16  17  18  19  20  21  22  24  25  26  27 0
 3-21G
 ****
 35  36  37  38  39  40  41  42  43  44  45 0
 3-21G
 ****


