%nproc=1
%NoSave
%Mem=1900MB
#P OB98/GEN NMR

erre ene a

0 1
  C      -94.158     201.528    -474.466
  O      -92.898     201.082    -474.972
  P      -91.689     202.155    -474.977
  C      -90.700     203.888    -476.598
  O      -91.592     202.810    -476.438
  C      -90.802     204.510    -478.019
  O      -90.268     203.619    -479.028
  C      -92.253     204.852    -478.414
  O      -92.199     206.032    -479.239
  C      -92.637     203.668    -479.292
  O      -93.744     203.994    -480.126
  C      -91.313     203.376    -480.011
  N      -91.244     202.030    -480.574
  C      -91.653     201.884    -481.892
  O      -92.127     202.835    -482.518
  N      -91.569     200.641    -482.477
  C      -91.147     199.631    -481.778
  N      -91.079     198.425    -482.404
  C      -90.740     199.726    -480.347
  C      -90.812     200.963    -479.825
  O      -90.377     201.229    -474.877
  O      -91.766     203.115    -473.837
  H      -93.924     203.207    -480.719
  H      -89.799     201.548    -474.161
  H      -90.409     198.871    -479.798
  H      -90.541     201.150    -478.801
  H      -91.156     204.103    -480.836
  H      -92.934     202.812    -478.663
  H      -92.921     205.018    -477.569
  H      -90.205     205.431    -478.040
  H      -91.359     198.386    -483.373
  H      -89.658     203.547    -476.458
  H      -90.780     197.579    -481.962
  H      -90.875     204.640    -475.831
  P      -93.335     207.150    -479.025
  C      -95.276     208.015    -480.482
  O      -94.314     206.986    -480.302
  O      -92.525     208.494    -479.423
  O      -93.971     207.269    -477.684
  H      -93.095     209.275    -479.257
  H      -95.783     207.833    -481.445
  H      -94.784     208.997    -480.518
  H      -96.023     207.964    -479.680
  H      -94.867     200.728    -474.518
  H      -94.507     202.352    -475.053
  H      -94.044     201.838    -473.448

 3  4  5  6  7  8  9  10  11  12  13  21  23  27  28  29  30  32 0
 6-311+G(2d,p)
 ****
 34  35 0
 6-311+G(2d,p)
 ****
 1  2  14  15  16  17  18  19  20  22  24  25  26 0
 3-21G
 ****
 31  33  36  37  38  39  40  41  42  43  44  45  46 0
 3-21G
 ****


