%nproc=1
%NoSave
%Mem=1900MB
#P OB98/GEN NMR

erre ene a

0 1
  C     -370.067     -21.058     298.841
  O     -370.215     -21.916     297.704
  P     -368.864     -22.438     297.020
  C     -369.564     -22.249     294.521
  O     -369.243     -23.109     295.610
  C     -369.805     -23.078     293.257
  O     -370.913     -23.987     293.417
  C     -370.149     -22.232     292.039
  O     -368.999     -21.579     291.524
  C     -370.751     -23.288     291.118
  O     -369.708     -24.046     290.475
  C     -371.513     -24.185     292.108
  N     -375.787     -23.577     289.372
  C     -374.518     -23.871     289.008
  N     -373.433     -24.015     289.800
  C     -373.759     -23.830     291.092
  C     -375.006     -23.535     291.610
  C     -376.058     -23.401     290.682
  N     -377.349     -23.094     291.047
  N     -374.954     -23.428     292.981
  C     -373.687     -23.627     293.285
  N     -372.929     -23.889     292.178
  O     -368.443     -23.683     297.931
  O     -367.783     -21.405     296.956
  H     -370.138     -24.794     290.011
  H     -367.659     -23.454     298.465
  H     -374.352     -24.003     287.943
  H     -373.274     -23.594     294.288
  H     -371.412     -25.244     291.861
  H     -371.379     -22.857     290.326
  H     -370.910     -21.484     292.296
  H     -368.897     -23.665     293.055
  H     -368.753     -21.537     294.347
  H     -378.028     -22.938     290.317
  H     -377.547     -22.873     292.017
  H     -370.456     -21.669     294.784
  P     -369.087     -20.002     291.256
  C     -368.255     -20.287     288.842
  O     -367.976     -19.746     290.120
  O     -368.388     -19.413     292.570
  O     -370.458     -19.488     290.961
  H     -367.564     -19.893     292.785
  H     -367.447     -20.012     288.164
  H     -369.193     -19.881     288.458
  H     -368.318     -21.376     288.900
  H     -371.034     -20.779     299.205
  H     -369.526     -20.180     298.557
  H     -369.531     -21.574     299.610

 3  4  5  6  7  8  9  10  11  12  22  25  29  30  31  32 0
 6-311+G(2d,p)
 ****
 33  36  37 0
 6-311+G(2d,p)
 ****
 1  2  13  14  15  16  17  18  19  20  21  23  24  26 0
 3-21G
 ****
 27  28  34  35  38  39  40  41  42  43  44  45  46  47  48 0
 3-21G
 ****


