%nproc=1
%NoSave
%Mem=1900MB
#P OB98/GEN NMR

erre ene a

0 1
  C     -233.810      -6.604    -104.136
  O     -232.970      -6.888    -105.254
  P     -232.845      -8.313    -105.959
  C     -231.479     -10.509    -105.519
  O     -231.693      -9.137    -105.215
  C     -230.038     -10.972    -105.240
  O     -229.121     -10.243    -106.096
  C     -229.640     -10.649    -103.801
  O     -230.001     -11.523    -102.748
  C     -228.150     -10.347    -103.871
  O     -227.344     -11.491    -103.587
  C     -227.950      -9.900    -105.323
  N     -225.468      -6.188    -107.819
  C     -225.412      -7.556    -108.008
  N     -224.549      -7.999    -108.946
  N     -226.125      -8.411    -107.324
  C     -226.881      -7.839    -106.358
  C     -227.005      -6.501    -106.061
  C     -226.254      -5.556    -106.864
  O     -226.278      -4.335    -106.746
  N     -227.848      -6.298    -104.999
  C     -228.213      -7.509    -104.638
  N     -227.656      -8.482    -105.438
  O     -232.809      -8.295    -107.449
  O     -234.201      -9.068    -105.513
  H     -227.722     -11.938    -102.808
  H     -234.447      -9.657    -106.254
  H     -224.916      -5.573    -108.390
  H     -228.880      -7.740    -103.814
  H     -227.109     -10.430    -105.787
  H     -227.874      -9.583    -103.133
  H     -223.889      -7.405    -109.419
  H     -230.118      -9.694    -103.544
  H     -224.344      -9.002    -108.936
  H     -229.913     -12.026    -105.496
  H     -231.726     -10.640    -106.577
  H     -232.181     -11.129    -104.958
  P     -231.341     -11.452    -101.875
  C     -232.780      -9.501    -101.043
  O     -231.465      -9.972    -101.279
  O     -231.002     -12.325    -100.575
  O     -232.567     -11.965    -102.556
  H     -231.821     -12.561    -100.103
  H     -232.755      -8.412    -100.942
  H     -233.164      -9.938    -100.116
  H     -233.443      -9.766    -101.873
  H     -233.704      -5.575    -103.862
  H     -233.527      -7.223    -103.311
  H     -234.829      -6.801    -104.396

 3  4  5  6  7  8  9  10  11  12  23  26  30  31 0
 6-311+G(2d,p)
 ****
 33  35  36  37  38 0
 6-311+G(2d,p)
 ****
 1  2  13  14  15  16  17  18  19  20  21  22  24  25 0
 3-21G
 ****
 27  28  29  32  34  39  40  41  42  43  44  45  46  47  48  49 0
 3-21G
 ****


