%nproc=1
%NoSave
%Mem=1900MB
#P OB98/GEN NMR

erre ene a

0 1
  C     -293.473     140.475    -340.993
  O     -293.921     141.102    -342.201
  P     -292.833     141.280    -343.374
  C     -294.472     140.947    -345.354
  O     -293.589     141.835    -344.680
  C     -295.414     141.709    -346.294
  O     -296.550     142.254    -345.555
  C     -294.754     142.878    -347.023
  O     -295.357     142.986    -348.317
  C     -295.164     144.077    -346.195
  O     -295.033     145.293    -346.921
  C     -296.589     143.673    -345.821
  N     -299.437     147.630    -344.297
  C     -299.129     147.156    -345.520
  N     -298.345     146.103    -345.842
  C     -297.887     145.497    -344.734
  C     -298.104     145.876    -343.417
  C     -298.922     147.003    -343.207
  N     -299.212     147.498    -341.965
  N     -297.427     145.033    -342.552
  C     -296.808     144.174    -343.339
  N     -297.082     144.395    -344.661
  O     -292.459     139.775    -343.758
  O     -291.627     142.056    -342.957
  H     -295.249     146.036    -346.323
  H     -291.564     139.560    -343.440
  H     -299.575     147.698    -346.357
  H     -296.152     143.382    -343.004
  H     -297.300     143.857    -346.637
  H     -294.526     144.145    -345.294
  H     -293.662     142.793    -347.125
  H     -295.816     140.994    -347.031
  H     -295.067     140.385    -344.623
  H     -299.783     148.334    -341.904
  H     -298.796     147.070    -341.152
  H     -293.885     140.198    -345.895
  P     -294.356     143.030    -349.572
  C     -296.263     142.333    -351.188
  O     -295.269     143.287    -350.862
  O     -293.880     141.509    -349.733
  O     -293.199     143.966    -349.397
  H     -293.008     141.477    -350.163
  H     -297.163     142.857    -351.518
  H     -296.517     141.692    -350.330
  H     -295.897     141.702    -352.001
  H     -294.285     140.417    -340.299
  H     -292.679     141.051    -340.566
  H     -293.121     139.489    -341.212

 3  4  5  6  7  8  9  10  11  12  22  25  29  30  31  32 0
 6-311+G(2d,p)
 ****
 33  36  37 0
 6-311+G(2d,p)
 ****
 1  2  13  14  15  16  17  18  19  20  21  23  24  26 0
 3-21G
 ****
 27  28  34  35  38  39  40  41  42  43  44  45  46  47  48 0
 3-21G
 ****


