%nproc=1
%NoSave
%Mem=1900MB
#P OB98/GEN NMR

erre ene a

0 1
  C      551.181     109.320     701.718
  O      552.275     109.346     702.616
  H      551.564     109.386     700.698
  H      550.516     110.166     701.906
  H      550.628     108.380     701.833
  P      551.917     109.366     704.180
  C      551.904     111.950     703.811
  O      551.268     110.823     704.401
  C      551.746     113.173     704.715
  O      550.405     113.244     705.246
  C      552.659     113.167     705.942
  O      553.994     113.526     705.646
  C      551.964     114.210     706.789
  O      552.238     115.526     706.259
  C      550.481     113.825     706.574
  N      549.996     112.878     707.581
  C      548.718     113.120     708.095
  O      548.053     114.089     707.731
  N      548.225     112.271     709.067
  C      548.933     111.255     709.461
  N      548.400     110.455     710.421
  C      550.273     110.956     708.928
  C      550.736     111.796     708.003
  O      553.346     109.514     704.886
  O      551.093     108.230     704.682
  H      551.979     115.504     705.312
  H      553.232     109.685     705.855
  H      550.833     110.106     709.298
  H      551.713     111.639     707.563
  H      549.838     114.712     706.586
  H      552.290     114.217     707.829
  H      552.626     112.206     706.470
  H      551.908     114.065     704.100
  H      547.499     110.724     710.810
  H      551.428     112.141     702.838
  H      548.927     109.740     710.898
  H      552.968     111.747     703.655
  P      555.163     112.595     706.246
  C      555.513     114.203     708.272
  O      555.220     112.878     707.818
  O      556.500     113.284     705.698
  O      555.074     111.155     705.855
  H      557.185     112.616     705.515
  H      555.513     114.222     709.342
  H      554.770     114.879     707.904
  H      556.475     114.499     707.910

 6  7  8  9  10  11  12  13  14  15  16  26  30  31  32  33  35 0
 6-311+G(2d,p)
 ****
 37  38 0
 6-311+G(2d,p)
 ****
 1  2  3  4  5  17  18  19  20  21  22  23  24  25 0
 3-21G
 ****
 27  28  29  34  36  39  40  41  42  43  44  45  46 0
 3-21G
 ****


