%nproc=1
%NoSave
%Mem=1900MB
#P OB98/GEN NMR

erre ene a

0 1
  C      -53.009      28.346      53.985
  O      -51.666      28.122      54.369
  P      -50.735      29.350      54.803
  C      -48.631      29.735      56.226
  O      -49.647      28.811      55.848
  C      -48.532      29.826      57.747
  O      -49.792      30.240      58.321
  C      -48.202      28.507      58.427
  O      -46.851      28.132      58.235
  C      -48.586      28.818      59.867
  O      -47.544      29.551      60.527
  C      -49.830      29.712      59.670
  N      -51.072      29.002      59.929
  C      -51.538      29.040      61.247
  O      -50.871      29.580      62.129
  N      -52.748      28.455      61.530
  C      -53.370      27.786      60.612
  N      -54.591      27.280      60.934
  C      -52.829      27.585      59.252
  C      -51.698      28.233      58.976
  O      -51.463      30.580      55.235
  O      -49.853      29.646      53.498
  H      -49.897      30.601      53.299
  H      -46.740      28.997      60.475
  H      -53.353      26.961      58.544
  H      -51.239      28.163      57.996
  H      -49.777      30.584      60.332
  H      -48.768      27.913      60.455
  H      -48.858      27.718      58.037
  H      -47.776      30.584      57.993
  H      -54.937      27.453      61.869
  H      -48.881      30.716      55.814
  H      -55.283      27.037      60.229
  H      -47.676      29.415      55.796
  P      -46.506      26.571      58.364
  C      -44.644      25.012      57.467
  O      -45.291      26.264      57.369
  O      -47.759      25.857      57.667
  O      -46.318      26.090      59.765
  H      -47.969      25.030      58.138
  H      -44.106      24.821      56.536
  H      -45.361      24.202      57.632
  H      -43.925      25.036      58.291
  H      -53.468      27.413      53.731
  H      -53.033      28.998      53.137
  H      -53.542      28.796      54.796

 3  4  5  6  7  8  9  10  11  12  13  24  27  28  29  30  32 0
 6-311+G(2d,p)
 ****
 34  35 0
 6-311+G(2d,p)
 ****
 1  2  14  15  16  17  18  19  20  21  22  23  25  26 0
 3-21G
 ****
 31  33  36  37  38  39  40  41  42  43  44  45  46 0
 3-21G
 ****


