%nproc=1
%NoSave
%Mem=1900MB
#P OB98/GEN NMR

erre ene a

0 1
  C     -257.682     131.702    -653.367
  O     -257.878     131.104    -652.099
  P     -258.144     132.083    -650.856
  C     -256.128     130.770    -649.867
  O     -257.371     131.425    -649.615
  C     -255.720     129.922    -648.666
  O     -255.405     130.777    -647.558
  C     -256.793     128.974    -648.162
  O     -256.884     127.835    -648.991
  C     -256.306     128.678    -646.753
  O     -255.372     127.578    -646.757
  C     -255.606     130.000    -646.356
  N     -256.353     130.745    -645.356
  C     -256.297     130.238    -644.038
  O     -255.663     129.204    -643.803
  N     -256.993     130.899    -643.057
  C     -257.685     131.948    -643.346
  N     -258.354     132.560    -642.328
  C     -257.791     132.511    -644.719
  C     -257.097     131.850    -645.656
  O     -259.688     131.824    -650.511
  O     -257.857     133.525    -651.122
  H     -255.906     126.782    -646.985
  H     -260.092     132.594    -650.078
  H     -258.373     133.392    -644.897
  H     -257.123     132.197    -646.685
  H     -254.605     129.790    -645.940
  H     -257.124     128.399    -646.088
  H     -257.766     129.498    -648.121
  H     -254.800     129.360    -648.931
  H     -258.276     132.157    -641.401
  H     -255.350     131.512    -650.065
  H     -258.904     133.402    -642.455
  H     -256.239     130.137    -650.763
  P     -258.188     127.699    -649.943
  C     -258.639     125.464    -648.776
  O     -258.468     126.130    -650.007
  O     -257.591     128.004    -651.394
  O     -259.343     128.582    -649.620
  H     -258.305     128.052    -652.050
  H     -258.980     124.442    -648.966
  H     -259.380     125.969    -648.157
  H     -257.674     125.425    -648.245
  H     -257.517     130.939    -654.099
  H     -256.831     132.350    -653.328
  H     -258.550     132.269    -653.632

 3  4  5  6  7  8  9  10  11  12  13  21  23  27  28  29  30  32 0
 6-311+G(2d,p)
 ****
 34  35 0
 6-311+G(2d,p)
 ****
 1  2  14  15  16  17  18  19  20  22  24  25  26 0
 3-21G
 ****
 31  33  36  37  38  39  40  41  42  43  44  45  46 0
 3-21G
 ****


