%nproc=1
%NoSave
%Mem=1900MB
#P OB98/GEN NMR

erre ene a

0 1
  C       12.804      14.069      33.565
  O       13.366      13.763      34.821
  H       12.445      13.144      33.108
  H       13.569      14.507      32.918
  H       11.964      14.762      33.660
  P       13.549      14.939      35.889
  C       11.281      14.220      36.889
  O       12.103      15.307      36.482
  C       10.128      14.686      37.778
  O       10.642      15.106      39.060
  C        9.379      15.884      37.188
  O        8.337      15.542      36.291
  C        8.824      16.557      38.441
  O        7.544      16.013      38.802
  C        9.869      16.227      39.513
  N       10.626      20.478      42.249
  C        9.478      19.717      42.130
  N        8.395      20.172      42.796
  N        9.409      18.627      41.412
  C       10.542      18.354      40.726
  C       11.733      19.045      40.749
  C       11.824      20.208      41.605
  O       12.821      20.906      41.758
  N       12.652      18.493      39.889
  C       11.987      17.527      39.288
  N       10.731      17.354      39.819
  O       13.885      16.218      34.981
  O       14.624      14.721      36.910
  H        7.683      15.102      39.125
  H       14.471      16.822      35.472
  H       10.627      21.289      42.840
  H       12.380      16.896      38.499
  H        9.394      15.925      40.454
  H        8.676      17.626      38.276
  H        8.369      21.047      43.292
  H       10.075      16.578      36.709
  H        7.488      19.751      42.584
  H        9.452      13.843      37.964
  H       11.925      13.534      37.441
  H       10.899      13.684      36.016
  P        7.759      16.614      35.257
  C        9.442      15.903      33.372
  O        8.884      16.923      34.170
  O        7.702      17.957      36.124
  O        6.433      16.278      34.657
  H        6.799      18.114      36.457
  H       10.173      16.324      32.714
  H        8.670      15.438      32.796
  H        9.907      15.172      34.001

 6  7  8  9  10  11  12  13  14  15  26  29  33  34 0
 6-311+G(2d,p)
 ****
 36  38  39  40  41 0
 6-311+G(2d,p)
 ****
 1  2  3  4  5  16  17  18  19  20  21  22  23  24  25 0
 3-21G
 ****
 27  28  30  31  32  35  37  42  43  44  45  46  47 0
 3-21G
 ****
 48  49 0
 3-21G
 ****


