%nproc=1
%NoSave
%Mem=1900MB
#P OB98/GEN NMR

erre ene a

0 1
  C     -534.006    -755.872    -230.008
  O     -534.440    -754.688    -230.656
  P     -534.918    -753.416    -229.818
  C     -534.064    -751.709    -231.535
  O     -535.200    -752.216    -230.849
  C     -534.416    -751.284    -232.976
  O     -534.691    -752.468    -233.764
  C     -535.640    -750.363    -233.057
  O     -535.363    -749.403    -234.091
  C     -536.744    -751.300    -233.492
  O     -537.836    -750.620    -234.118
  C     -535.978    -752.265    -234.391
  N     -536.677    -753.524    -234.594
  C     -537.681    -753.551    -235.571
  O     -538.029    -752.510    -236.127
  N     -538.269    -754.750    -235.869
  C     -538.012    -755.793    -235.149
  N     -538.556    -756.983    -235.536
  C     -537.135    -755.752    -233.956
  C     -536.488    -754.609    -233.754
  O     -534.045    -753.048    -228.668
  O     -536.398    -753.805    -229.313
  H     -536.443    -753.689    -228.335
  H     -538.258    -750.034    -233.457
  H     -537.060    -756.605    -233.294
  H     -535.804    -754.478    -232.922
  H     -535.792    -751.812    -235.372
  H     -537.143    -751.836    -232.613
  H     -535.853    -749.840    -232.131
  H     -533.550    -750.789    -233.402
  H     -539.111    -756.983    -236.378
  H     -533.313    -752.504    -231.575
  H     -538.174    -757.876    -235.220
  H     -533.635    -750.876    -230.978
  P     -535.707    -747.858    -233.800
  C     -533.998    -747.377    -235.717
  O     -535.206    -746.996    -235.068
  O     -534.582    -747.488    -232.696
  O     -537.059    -747.549    -233.249
  H     -534.908    -746.735    -232.160
  H     -533.799    -746.641    -236.500
  H     -534.116    -748.356    -236.165
  H     -533.183    -747.384    -235.011
  H     -533.730    -756.600    -230.742
  H     -534.799    -756.259    -229.403
  H     -533.161    -755.651    -229.390

 3  4  5  6  7  8  9  10  11  12  13  24  27  28  29  30  32 0
 6-311+G(2d,p)
 ****
 34  35 0
 6-311+G(2d,p)
 ****
 1  2  14  15  16  17  18  19  20  21  22  23  25  26 0
 3-21G
 ****
 31  33  36  37  38  39  40  41  42  43  44  45  46 0
 3-21G
 ****


