%nproc=1
%NoSave
%Mem=1900MB
#P OB98/GEN NMR

erre ene a

0 1
  C       97.285     980.867    -203.029
  O       97.932     981.835    -203.826
  H       96.204     981.001    -203.121
  H       97.563     980.995    -201.980
  H       97.545     979.856    -203.361
  P       99.529     981.729    -203.966
  C       99.050     979.912    -205.758
  O       99.834     980.302    -204.646
  C       99.905     979.855    -207.027
  O      101.008     978.935    -206.803
  C       99.144     979.384    -208.267
  O       99.601     980.132    -209.397
  C       99.560     977.931    -208.421
  O       99.445     977.459    -209.760
  C      100.994     977.961    -207.869
  N      101.410     976.641    -207.402
  C      102.449     976.026    -208.108
  O      102.958     976.585    -209.080
  N      102.850     974.765    -207.740
  C      102.210     974.138    -206.799
  N      102.628     972.884    -206.500
  C      101.067     974.721    -206.073
  C      100.729     975.966    -206.412
  O      100.022     981.529    -202.459
  O      100.191     982.886    -204.634
  H      100.058     977.978    -210.322
  H      100.900     981.928    -202.318
  H      100.543     974.151    -205.314
  H       99.895     976.478    -205.940
  H      101.694     978.303    -208.638
  H       98.924     977.297    -207.785
  H       98.059     979.495    -208.178
  H      100.347     980.848    -207.186
  H      103.407     972.507    -207.036
  H       98.250     980.644    -205.908
  H      102.178     972.283    -205.818
  H       98.598     978.932    -205.561
  P       98.480     980.740    -210.368
  C       97.673     982.491    -208.630
  O       97.330     981.391    -209.459
  O       97.791     979.439    -210.992
  O       99.034     981.634    -211.431
  H       98.039     979.344    -211.933
  H       96.808     982.813    -208.089
  H       98.034     983.295    -209.236
  H       98.435     982.194    -207.940

 6  7  8  9  10  11  12  13  14  15  16  26  30  31  32  33  35 0
 6-311+G(2d,p)
 ****
 37  38 0
 6-311+G(2d,p)
 ****
 1  2  3  4  5  17  18  19  20  21  22  23  24  25 0
 3-21G
 ****
 27  28  29  34  36  39  40  41  42  43  44  45  46 0
 3-21G
 ****


