%nproc=1
%NoSave
%Mem=1900MB
#P OB98/GEN NMR

erre ene a

0 1
  C     -215.040     200.844     371.666
  O     -214.512     201.069     370.354
  P     -214.217     202.595     369.963
  C     -216.609     202.835     368.988
  O     -215.214     203.004     368.774
  C     -217.413     203.746     368.051
  O     -217.373     205.131     368.461
  C     -216.909     203.730     366.612
  O     -217.391     202.570     365.947
  C     -217.498     205.018     366.059
  O     -218.860     204.835     365.628
  C     -217.441     205.961     367.277
  N     -216.151     210.865     367.296
  C     -217.393     210.275     367.156
  N     -218.445     211.113     367.021
  N     -217.584     208.984     367.143
  C     -216.444     208.266     367.283
  C     -215.164     208.736     367.463
  C     -214.958     210.167     367.469
  O     -213.884     210.738     367.619
  N     -214.270     207.707     367.637
  C     -214.999     206.622     367.434
  N     -216.337     206.904     367.285
  O     -212.779     202.525     369.263
  O     -214.208     203.521     371.140
  H     -219.414     204.631     366.404
  H     -212.111     202.944     369.832
  H     -216.059     211.868     367.290
  H     -214.613     205.611     367.418
  H     -218.356     206.564     367.358
  H     -216.944     205.377     365.189
  H     -218.368     212.123     367.023
  H     -215.811     203.774     366.594
  H     -219.364     210.707     366.927
  H     -218.457     203.412     368.086
  H     -216.861     203.066     370.026
  H     -216.867     201.791     368.825
  P     -216.506     201.239     366.031
  C     -215.110     201.546     363.862
  O     -216.123     200.816     364.535
  O     -217.564     200.127     366.485
  O     -215.355     201.310     366.987
  H     -217.171     199.563     367.185
  H     -214.616     200.884     363.149
  H     -214.367     201.939     364.561
  H     -215.570     202.376     363.315
  H     -215.196     199.796     371.813
  H     -215.971     201.361     371.769
  H     -214.348     201.208     372.396

 3  4  5  6  7  8  9  10  11  12  23  26  30  31 0
 6-311+G(2d,p)
 ****
 33  35  36  37  38 0
 6-311+G(2d,p)
 ****
 1  2  13  14  15  16  17  18  19  20  21  22  24  25 0
 3-21G
 ****
 27  28  29  32  34  39  40  41  42  43  44  45  46  47  48  49 0
 3-21G
 ****


