%nproc=1
%NoSave
%Mem=1900MB
#P OB98/GEN NMR

erre ene a

0 1
  C     -311.415    -896.009    -891.330
  O     -310.103    -896.079    -891.850
  H     -311.793    -894.989    -891.480
  H     -311.406    -896.239    -890.270
  H     -312.075    -896.709    -891.870
  P     -309.380    -897.509    -891.770
  C     -309.172    -897.909    -894.330
  O     -309.774    -898.299    -893.110
  C     -310.219    -897.319    -895.290
  O     -310.841    -896.159    -894.660
  C     -309.627    -896.809    -896.620
  O     -310.647    -896.949    -897.640
  C     -309.388    -895.359    -896.330
  O     -309.143    -894.619    -897.520
  C     -310.656    -895.049    -895.540
  N     -312.939    -890.579    -894.530
  C     -313.332    -891.639    -895.290
  N     -312.653    -892.789    -895.500
  C     -311.515    -892.829    -894.800
  C     -311.000    -891.829    -893.970
  C     -311.780    -890.649    -893.850
  N     -311.394    -889.569    -893.080
  N     -309.791    -892.209    -893.460
  C     -309.569    -893.419    -893.940
  N     -310.588    -893.809    -894.770
  O     -310.196    -898.269    -890.620
  O     -307.913    -897.459    -891.480
  H     -309.982    -894.489    -898.000
  H     -309.759    -898.169    -889.770
  H     -314.267    -891.519    -895.800
  H     -308.721    -894.039    -893.740
  H     -311.524    -894.969    -896.200
  H     -308.485    -895.229    -895.700
  H     -308.740    -897.389    -896.950
  H     -311.015    -898.059    -895.450
  H     -308.700    -898.799    -894.790
  H     -308.388    -897.149    -894.140
  H     -312.004    -888.779    -893.070
  H     -310.515    -889.619    -892.600
  P     -310.713    -898.289    -898.520
  C     -313.152    -899.289    -898.410
  O     -311.803    -899.259    -897.890
  O     -309.324    -898.999    -898.130
  O     -310.796    -898.069    -900.000
  H     -309.033    -899.569    -898.870
  H     -313.731    -900.000    -897.858
  H     -313.130    -899.571    -899.442
  H     -313.593    -898.319    -898.314

 6  7  8  9  10  11  12  13  14  15  25  28  32  33  34  35 0
 6-311+G(2d,p)
 ****
 36  37  40 0
 6-311+G(2d,p)
 ****
 1  2  3  4  5  16  17  18  19  20  21  22  23  24 0
 3-21G
 ****
 26  27  29  30  31  38  39 41  42  43  44  45  46  47  48 0
 3-21G
 ****


