%nproc=1
%NoSave
%Mem=1900MB
#P OB98/GEN NMR

erre ene a

0 1
  C        5.095      34.897      -0.684
  O        3.702      34.683      -0.772
  H        5.274      35.963      -0.521
  H        5.589      34.598      -1.611
  H        5.515      34.341       0.159
  P        3.170      33.203      -1.078
  C        1.903      32.939       1.155
  O        1.799      33.027      -0.262
  C        0.523      33.121       1.798
  O        0.260      34.544       1.880
  C       -0.599      32.470       0.976
  O       -1.412      31.585       1.742
  C       -1.281      33.660       0.312
  O       -2.638      33.451      -0.021
  C       -1.035      34.800       1.305
  N       -1.077      36.130       0.703
  C       -2.309      36.777       0.670
  O       -3.356      36.329       1.130
  N       -2.310      38.015       0.080
  C       -1.236      38.645      -0.470
  O       -1.298      39.757      -0.980
  C        0.032      37.902      -0.426
  C        0.053      36.696       0.148
  O        4.159      32.106      -0.878
  O        2.675      33.277      -2.599
  H       -3.142      33.380       0.815
  H        3.340      32.862      -3.179
  H       -3.195      38.497       0.061
  H        0.903      38.368      -0.863
  H        0.972      36.121       0.200
  H       -1.773      34.776       2.107
  H       -0.752      33.880      -0.624
  H       -0.184      31.820       0.197
  H        0.555      32.731       2.821
  H        2.585      33.725       1.493
  H        2.315      31.963       1.434
  P       -2.569      30.665       1.140
  C       -1.881      28.309       2.063
  O       -2.770      29.415       2.118
  O       -2.468      30.373      -0.319
  O       -3.901      31.546       1.370
  H       -4.502      31.341       0.626
  H       -2.175      27.578       2.787
  H       -0.886      28.640       2.275
  H       -1.912      27.875       1.086

 6  7  8  9  10  11  12  13  14  15  16  26  31  32  33  34  35 0
 6-311+G(2d,p)
 ****
 36  37 0
 6-311+G(2d,p)
 ****
 1  2  3  4  5  17  18  19  20  21  22  23  24  25 0
 3-21G
 ****
 27  28  29  30  38  39  40  41  42  43  44  45 0
 3-21G
 ****


