%nproc=1
%NoSave
%Mem=1900MB
#P OB98/GEN NMR

erre ene a

0 1
  C     -836.575    1130.390     -26.540
  O     -836.821    1130.861     -27.861
  H     -837.501    1129.987     -26.142
  H     -836.247    1131.213     -25.905
  H     -835.826    1129.604     -26.566
  P     -835.575    1131.537     -28.623
  C     -835.588    1133.826     -27.401
  O     -834.963    1132.560     -27.538
  C     -834.558    1134.898     -27.032
  O     -833.945    1134.579     -25.770
  C     -833.432    1135.052     -28.019
  O     -833.826    1135.895     -29.105
  C     -832.374    1135.726     -27.164
  O     -832.636    1137.139     -27.068
  C     -832.580    1135.055     -25.795
  N     -830.846    1131.923     -22.107
  C     -831.604    1133.051     -22.050
  N     -831.973    1133.849     -23.051
  C     -831.514    1133.404     -24.256
  C     -830.720    1132.275     -24.457
  C     -830.377    1131.513     -23.324
  N     -829.621    1130.378     -23.386
  N     -830.417    1132.141     -25.797
  C     -831.056    1133.118     -26.381
  N     -831.697    1133.939     -25.494
  O     -835.870    1132.095     -29.967
  O     -834.514    1130.342     -28.599
  H     -832.250    1137.445     -26.228
  H     -834.536    1129.877     -27.746
  H     -831.949    1133.328     -21.063
  H     -831.101    1133.279     -27.457
  H     -832.473    1135.773     -24.970
  H     -831.363    1135.625     -27.581
  H     -833.056    1134.094     -28.385
  H     -835.094    1135.840     -26.901
  H     -836.374    1133.777     -26.631
  H     -829.284    1130.004     -22.516
  H     -829.181    1130.152     -24.260
  H     -836.049    1134.069     -28.352
  P     -833.786    1135.383     -30.622
  C     -831.508    1136.367     -31.251
  O     -832.234    1135.176     -30.955
  O     -834.560    1136.227     -31.584
  O     -834.330    1133.880     -30.533
  H     -834.606    1133.567     -31.438
  H     -830.488    1136.121     -31.458
  H     -831.552    1137.029     -30.412
  H     -831.940    1136.845     -32.105

 6  7  8  9  10  11  12  13  14  15  25  28  32  33  34  35 0
 6-311+G(2d,p)
 ****
 36  39  40 0
 6-311+G(2d,p)
 ****
 1  2  3  4  5  16  17  18  19  20  21  22  23  24 0
 3-21G
 ****
 26  27  29  30  31  37  38  41  42  43  44  45  46  47 0
 3-21G
 ****
 48 0
 3-21G
 ****


