%nproc=1
%NoSave
%Mem=1900MB
#P OB98/GEN NMR

erre ene a

0 1
  C      158.926    -208.809     280.699
  O      159.941    -208.795     281.684
  H      159.329    -208.384     279.776
  H      158.072    -208.205     281.018
  H      158.601    -209.834     280.499
  P      159.592    -209.367     283.138
  C      160.100    -207.378     284.705
  O      159.103    -208.106     284.001
  C      159.660    -205.928     284.885
  O      159.760    -205.215     283.637
  C      158.216    -205.775     285.360
  O      158.132    -205.966     286.761
  C      157.939    -204.343     284.932
  O      158.566    -203.431     285.854
  C      158.643    -204.286     283.565
  N      154.610    -203.021     280.767
  C      155.132    -202.419     281.896
  N      154.453    -201.351     282.370
  N      156.204    -202.837     282.514
  C      156.735    -203.955     281.967
  C      156.299    -204.651     280.862
  C      155.143    -204.147     280.154
  O      154.659    -204.641     279.139
  N      157.053    -205.776     280.648
  C      157.967    -205.737     281.598
  N      157.808    -204.660     282.435
  O      160.662    -210.177     283.808
  O      158.250    -210.206     282.916
  H      158.140    -203.574     286.718
  H      158.447    -211.144     282.735
  H      153.769    -202.663     280.347
  H      158.764    -206.460     281.723
  H      159.053    -203.293     283.350
  H      156.877    -204.101     284.906
  H      153.491    -201.171     282.110
  H      157.536    -206.438     284.814
  H      154.789    -200.925     283.223
  H      160.356    -205.451     285.586
  H      161.022    -207.428     284.116
  H      160.282    -207.830     285.685
  P      156.724    -206.262     287.474
  C      157.035    -204.173     288.964
  O      156.220    -204.836     288.006
  O      156.758    -207.336     288.508
  O      155.718    -206.556     286.269
  H      155.693    -207.507     285.999
  H      156.585    -203.240     289.231
  H      158.004    -203.995     288.546
  H      157.130    -204.785     289.836

 6  7  8  9  10  11  12  13  14  15  26  29  33  34 0
 6-311+G(2d,p)
 ****
 36  38  39  40  41 0
 6-311+G(2d,p)
 ****
 1  2  3  4  5  16  17  18  19  20  21  22  23  24  25 0
 3-21G
 ****
 27  28  30  31  32  35  37  42  43  44  45  46  47 0
 3-21G
 ****
 48  49 0
 3-21G
 ****


