%nproc=1
%NoSave
%Mem=1900MB
#P OB98/GEN NMR

erre ene a

0 1
  C      441.747    -518.798     858.668
  O      441.515    -517.469     859.152
  P      440.198    -517.243     860.044
  C      441.370    -516.669     862.300
  O      440.579    -517.602     861.556
  C      440.644    -516.209     863.555
  O      440.569    -517.280     864.529
  C      441.300    -515.053     864.283
  O      441.007    -513.812     863.664
  C      440.638    -515.149     865.646
  O      439.353    -514.489     865.622
  C      440.481    -516.658     865.834
  N      442.181    -517.128     870.595
  C      441.093    -516.425     870.096
  N      440.331    -515.773     871.019
  N      440.778    -516.371     868.839
  C      441.604    -517.078     868.044
  C      442.710    -517.812     868.406
  C      443.070    -517.849     869.808
  O      444.040    -518.430     870.299
  N      443.297    -518.417     867.324
  C      442.529    -518.074     866.312
  N      441.495    -517.251     866.693
  O      439.254    -518.465     859.608
  O      439.538    -515.924     859.839
  H      439.518    -513.567     865.370
  H      438.328    -518.221     859.736
  H      442.378    -517.133     871.578
  H      442.675    -518.389     865.280
  H      439.498    -516.923     866.240
  H      441.228    -514.650     866.434
  H      440.466    -515.830     872.019
  H      442.386    -515.205     864.373
  H      439.506    -515.294     870.689
  H      439.613    -515.956     863.258
  H      441.591    -515.801     861.674
  H      442.331    -517.142     862.548
  P      442.220    -512.786     863.444
  C      442.629    -513.174     860.905
  O      443.073    -513.385     862.232
  O      443.140    -513.036     864.723
  O      441.803    -511.355     863.304
  H      443.631    -512.218     864.957
  H      442.279    -512.152     860.773
  H      441.808    -513.873     860.679
  H      443.447    -513.367     860.209
  H      442.649    -518.816     858.092
  H      440.925    -519.102     858.054
  H      441.840    -519.468     859.497

 3  4  5  6  7  8  9  10  11  12  23  26  30  31  33  0
 6-311+G(2d,p)
 ****
 35  36  37  38 0
 6-311+G(2d,p)
 ****
 1  2  13  14  15  16  17  18  19  20  21  22  24  25  27  28  29 0
 3-21G
 ****
 32  34  39  40  41  42  43  44  45  46  47  48  49 0
 3-21G
 ****


