%nproc=1
%NoSave
%Mem=1900MB
#P OB98/GEN NMR

erre ene a

0 1
  C       -0.501    -577.114    -267.547
  O       -0.361    -575.739    -267.169
  P        0.249    -574.719    -268.245
  C        2.387    -574.003    -266.939
  O        1.123    -573.619    -267.471
  C        3.131    -572.782    -266.400
  O        3.535    -571.887    -267.455
  C        2.306    -571.930    -265.448
  O        2.306    -572.465    -264.135
  C        3.073    -570.616    -265.482
  O        4.228    -570.705    -264.625
  C        3.505    -570.535    -266.951
  N        2.819    -565.996    -269.228
  C        3.807    -566.469    -268.433
  N        3.911    -567.680    -267.851
  C        2.859    -568.451    -268.169
  C        1.778    -568.108    -268.962
  C        1.779    -566.814    -269.508
  N        0.772    -566.342    -270.317
  N        0.885    -569.159    -269.056
  C        1.428    -570.122    -268.341
  N        2.617    -569.741    -267.779
  O       -1.035    -573.892    -268.726
  O        0.929    -575.389    -269.392
  H        3.899    -570.785    -263.711
  H       -0.942    -573.662    -269.671
  H        4.628    -565.777    -268.240
  H        1.004    -571.106    -268.206
  H        4.513    -570.117    -267.063
  H        2.477    -569.771    -265.128
  H        1.287    -571.783    -265.833
  H        4.038    -573.135    -265.885
  H        2.984    -574.498    -267.711
  H        0.855    -565.411    -270.694
  H        0.002    -566.955    -270.551
  H        2.229    -574.747    -266.151
  P        0.960    -573.180    -263.631
  C       -0.456    -571.013    -263.414
  O        0.188    -572.083    -262.752
  O        1.494    -574.236    -262.553
  O        0.170    -573.833    -264.713
  H        0.904    -575.017    -262.529
  H       -1.166    -570.551    -262.720
  H       -1.000    -571.360    -264.293
  H        0.284    -570.264    -263.708
  H       -0.918    -577.667    -266.732
  H        0.459    -577.515    -267.796
  H       -1.149    -577.186    -268.396

 3  4  5  6  7  8  9  10  11  12  22  25  29  30  31  32 0
 6-311+G(2d,p)
 ****
 33  36  37 0
 6-311+G(2d,p)
 ****
 1  2  13  14  15  16  17  18  19  20  21  23  24  26 0
 3-21G
 ****
 27  28  34  35  38  39  40  41  42  43  44  45  46  47  48 0
 3-21G
 ****


