%nproc=1
%NoSave
%Mem=1900MB
#P OB98/GEN NMR

erre ene a

0 1
  C      251.314    -174.809     -24.717
  O      250.533    -173.641     -24.554
  H      250.752    -175.528     -25.318
  H      251.531    -175.253     -23.742
  H      252.249    -174.570     -25.232
  P      251.204    -172.442     -23.729
  C      251.458    -170.697     -25.649
  O      250.762    -171.092     -24.477
  C      250.536    -169.875     -26.560
  O      249.565    -170.773     -27.173
  C      249.736    -168.793     -25.813
  O      249.495    -167.698     -26.714
  C      248.427    -169.510     -25.535
  O      247.419    -168.589     -25.196
  C      248.256    -170.253     -26.857
  N      243.372    -171.482     -27.661
  C      244.071    -170.352     -27.910
  N      245.376    -170.107     -27.673
  C      245.974    -171.193     -27.148
  C      245.394    -172.408     -26.836
  C      244.022    -172.536     -27.109
  N      243.299    -173.676     -26.838
  N      246.330    -173.267     -26.284
  C      247.455    -172.577     -26.270
  N      247.286    -171.321     -26.784
  O      252.760    -172.581     -24.083
  O      250.962    -172.453     -22.258
  H      246.530    -168.993     -25.276
  H      253.206    -173.129     -23.412
  H      243.507    -169.537     -28.355
  H      248.406    -172.931     -25.895
  H      247.953    -169.586     -27.673
  H      248.529    -170.210     -24.700
  H      250.238    -168.423     -24.915
  H      251.127    -169.442     -27.377
  H      251.796    -171.595     -26.175
  H      252.325    -170.092     -25.372
  H      242.313    -173.674     -27.039
  H      243.761    -174.456     -26.395
  P      250.152    -166.267     -26.399
  C      250.934    -165.813     -28.847
  O      250.192    -165.362     -27.726
  O      251.699    -166.647     -26.205
  O      249.635    -165.577     -25.181
  H      252.050    -166.202     -25.411
  H      250.855    -165.097     -29.638
  H      250.545    -166.754     -29.177
  H      251.961    -165.929     -28.572

 6  7  8  9  10  11  12  13  14  15  25  28  32  33  34  35 0
 6-311+G(2d,p)
 ****
 36  37  40 0
 6-311+G(2d,p)
 ****
 1  2  3  4  5  16  17  18  19  20  21  22  23  24 0
 3-21G
 ****
 26  27  29  30  31  38  39 41  42  43  44  45  46  47  48 0
 3-21G
 ****


