%nproc=1
%NoSave
%Mem=1900MB
#P OB98/GEN NMR

erre ene a

0 1
  C      118.365      16.205    -162.576
  O      117.498      16.631    -161.543
  H      118.437      15.116    -162.545
  H      119.361      16.631    -162.428
  H      117.970      16.506    -163.549
  P      117.245      18.210    -161.430
  C      116.790      18.216    -158.863
  O      116.274      18.414    -160.170
  C      115.688      18.422    -157.816
  O      115.219      19.800    -157.898
  C      114.459      17.522    -158.022
  O      113.860      17.291    -156.736
  C      113.554      18.420    -158.851
  O      112.237      17.920    -158.885
  C      113.794      19.747    -158.136
  N      110.871      23.940    -158.075
  C      111.138      23.017    -157.127
  N      111.936      21.935    -157.213
  C      112.509      21.860    -158.426
  C      112.341      22.731    -159.490
  C      111.469      23.815    -159.282
  N      111.189      24.752    -160.250
  N      113.091      22.323    -160.577
  C      113.702      21.227    -160.173
  N      113.374      20.906    -158.886
  O      116.309      18.525    -162.688
  O      118.473      19.057    -161.419
  H      111.910      17.739    -157.979
  H      116.853      18.831    -163.438
  H      110.641      23.167    -156.171
  H      114.378      20.629    -160.772
  H      113.292      19.781    -157.162
  H      113.899      18.468    -159.889
  H      114.695      16.564    -158.492
  H      116.115      18.292    -156.816
  H      117.599      18.936    -158.697
  H      117.187      17.200    -158.777
  H      110.541      25.491    -160.025
  H      111.615      24.661    -161.160
  P      113.474      15.789    -156.310
  C      111.232      15.596    -154.977
  O      112.630      15.842    -154.948
  O      114.886      15.216    -155.802
  O      112.916      14.930    -157.396
  H      114.910      14.250    -155.931
  H      110.836      15.672    -153.986
  H      111.051      14.613    -155.359
  H      110.756      16.317    -155.608

 6  7  8  9  10  11  12  13  14  15  25  28  32  33  34  35 0
 6-311+G(2d,p)
 ****
 36  37  40 0
 6-311+G(2d,p)
 ****
 1  2  3  4  5  16  17  18  19  20  21  22  23  24 0
 3-21G
 ****
 26  27  29  30  31  38  39 41  42  43  44  45  46  47  48 0
 3-21G
 ****


