%nproc=1
%NoSave
%Mem=1900MB
#P OB98/GEN NMR

erre ene a

0 1
  C     -269.318     710.054     248.603
  O     -269.201     710.939     247.504
  H     -268.423     709.432     248.649
  H     -270.194     709.406     248.480
  H     -269.404     710.618     249.538
  P     -270.400     711.959     247.219
  C     -271.799     710.039     246.206
  O     -271.238     711.332     246.004
  C     -273.138     709.929     245.481
  O     -274.139     710.719     246.139
  C     -273.079     710.410     244.024
  O     -272.545     709.396     243.184
  C     -274.560     710.677     243.765
  O     -275.248     709.429     243.557
  C     -275.000     711.308     245.100
  N     -277.139     715.733     243.882
  C     -277.548     714.443     243.597
  N     -278.660     714.318     242.841
  N     -276.913     713.378     243.993
  C     -275.775     713.654     244.687
  C     -275.258     714.897     245.014
  C     -276.014     716.067     244.621
  O     -275.696     717.234     244.864
  N     -274.065     714.783     245.658
  C     -273.861     713.486     245.763
  N     -274.865     712.752     245.164
  O     -270.012     713.399     247.009
  O     -271.375     711.780     248.472
  H     -274.730     708.928     242.898
  H     -271.168     712.417     249.177
  H     -277.672     716.515     243.532
  H     -273.010     713.019     246.251
  H     -276.031     711.059     245.362
  H     -274.739     711.301     242.892
  H     -279.008     715.087     242.282
  H     -272.540     711.356     243.927
  H     -278.942     713.385     242.575
  H     -273.462     708.884     245.525
  H     -271.949     709.913     247.284
  H     -271.110     709.267     245.841
  P     -271.016     709.459     242.679
  C     -271.596     710.992     240.680
  O     -271.116     709.726     241.098
  O     -270.177     708.298     243.074
  O     -270.478     710.864     243.235
  H     -270.098     710.810     244.147
  H     -271.611     711.033     239.611
  H     -270.953     711.760     241.057
  H     -272.587     711.140     241.056

 6  7  8  9  10  11  12  13  14  15  26  29  33  34 0
 6-311+G(2d,p)
 ****
 36  38  39  40  41 0
 6-311+G(2d,p)
 ****
 1  2  3  4  5  16  17  18  19  20  21  22  23  24  25 0
 3-21G
 ****
 27  28  30  31  32  35  37  42  43  44  45  46  47 0
 3-21G
 ****
 48  49 0
 3-21G
 ****


