%nproc=1
%NoSave
%Mem=1900MB
#P OB98/GEN NMR

erre ene a

0 1
  C       43.960     -55.914     -23.268
  O       44.555     -56.538     -24.388
  H       43.171     -56.565     -22.884
  H       43.517     -54.960     -23.565
  H       44.702     -55.754     -22.481
  P       45.866     -55.832     -24.994
  C       44.536     -54.355     -26.707
  O       45.366     -54.418     -25.561
  C       44.284     -52.900     -27.105
  O       43.847     -52.866     -28.486
  C       43.217     -52.204     -26.261
  O       43.607     -50.844     -26.065
  C       41.975     -52.267     -27.133
  O       41.038     -51.244     -26.800
  C       42.582     -52.175     -28.540
  N       41.706     -52.746     -29.561
  C       40.635     -51.954     -29.985
  O       40.452     -50.843     -29.488
  N       39.773     -52.454     -30.928
  C       39.924     -53.668     -31.358
  N       39.023     -54.113     -32.276
  C       41.007     -54.558     -30.899
  C       41.858     -54.036     -30.018
  O       46.123     -56.703     -26.311
  O       47.021     -55.775     -24.052
  H       40.532     -51.542     -26.011
  H       45.311     -56.925     -26.796
  H       41.082     -55.568     -31.276
  H       42.689     -54.617     -29.633
  H       42.784     -51.130     -28.804
  H       41.475     -53.235     -27.000
  H       43.051     -52.679     -25.294
  H       45.236     -52.360     -27.064
  H       38.284     -53.478     -32.550
  H       43.579     -54.849     -26.511
  H       39.014     -55.054     -32.639
  H       45.038     -54.890     -27.519
  P       44.077     -50.365     -24.610
  C       41.718     -50.099     -23.605
  O       42.959     -50.783     -23.538
  O       44.551     -48.954     -24.513
  O       45.272     -51.385     -24.269
  H       45.970     -50.885     -23.802
  H       41.065     -50.469     -22.842
  H       41.273     -50.261     -24.564
  H       41.880     -49.051     -23.459

 6  7  8  9  10  11  12  13  14  15  16  26  30  31  32  33  35 0
 6-311+G(2d,p)
 ****
 37  38 0
 6-311+G(2d,p)
 ****
 1  2  3  4  5  17  18  19  20  21  22  23  24  25 0
 3-21G
 ****
 27  28  29  34  36  39  40  41  42  43  44  45  46 0
 3-21G
 ****


