%nproc=1
%NoSave
%Mem=1900MB
#P OB98/GEN NMR

erre ene a

0 1
  C       94.961    -827.463      12.470
  O       94.002    -826.498      12.909
  P       93.831    -825.152      12.046
  C       95.240    -823.505      13.494
  O       95.135    -824.251      12.284
  C       96.263    -822.373      13.332
  O       97.597    -822.887      13.147
  C       95.991    -821.464      12.142
  O       95.019    -820.472      12.453
  C       97.349    -820.811      11.958
  O       97.522    -819.753      12.904
  C       98.311    -821.974      12.269
  N      102.236    -822.859       9.206
  C      102.151    -822.075      10.342
  N      103.287    -821.437      10.722
  N      101.055    -821.931      11.037
  C      100.015    -822.641      10.556
  C       99.972    -823.439       9.443
  C      101.184    -823.589       8.668
  O      101.319    -824.254       7.642
  N       98.727    -823.985       9.260
  C       98.010    -823.534      10.274
  N       98.747    -822.690      11.077
  O       92.698    -824.360      12.852
  O       93.447    -825.385      10.623
  H       97.362    -820.132      13.799
  H       92.209    -823.776      12.244
  H      103.101    -822.939       8.701
  H       96.975    -823.769      10.471
  H       99.204    -821.633      12.798
  H       97.462    -820.376      10.958
  H      104.176    -821.549      10.264
  H       95.716    -822.050      11.252
  H      103.248    -820.885      11.571
  H       96.247    -821.770      14.260
  H       95.529    -824.162      14.322
  H       94.249    -823.121      13.757
  P       93.469    -820.912      12.429
  C       93.254    -820.731       9.839
  O       93.225    -821.559      10.986
  O       92.706    -819.504      12.358
  O       93.025    -821.717      13.599
  H       91.846    -819.567      12.807
  H       93.222    -821.353       8.950
  H       94.166    -820.125       9.823
  H       92.376    -820.062       9.835
  H       94.960    -828.297      13.140
  H       95.934    -827.018      12.456
  H       94.707    -827.796      11.485

 3  4  5  6  7  8  9  10  11  12  23  26  30  31 0
 6-311+G(2d,p)
 ****
 33  35  36  37  38 0
 6-311+G(2d,p)
 ****
 1  2  13  14  15  16  17  18  19  20  21  22  24  25 0
 3-21G
 ****
 27  28  29  32  34  39  40  41  42  43  44  45  46  47  48  49 0
 3-21G
 ****


