%nproc=1
%NoSave
%Mem=1900MB
#P OB98/GEN NMR

erre ene a

0 1
  C       17.971     -11.190       2.055
  O       18.098      -9.792       1.892
  P       17.452      -8.774       2.943
  C       15.003      -9.322       2.431
  O       16.017      -8.328       2.388
  C       13.609      -8.698       2.372
  O       12.613      -9.752       2.309
  C       13.272      -7.804       3.572
  O       12.514      -6.696       3.075
  C       12.403      -8.700       4.434
  O       11.578      -7.962       5.323
  C       11.658      -9.495       3.357
  N       11.089     -10.731       3.871
  C        9.704     -10.880       3.769
  O        9.007      -9.939       3.385
  N        9.147     -12.083       4.122
  C        9.881     -12.982       4.702
  N        9.307     -14.185       4.972
  C       11.298     -12.756       5.051
  C       11.844     -11.641       4.573
  O       18.336      -7.643       3.353
  O       17.081      -9.692       4.203
  H       17.476      -9.305       5.008
  H       12.149      -7.445       5.930
  H       11.834     -13.482       5.645
  H       12.884     -11.398       4.752
  H       10.853      -8.891       2.920
  H       13.038      -9.365       5.031
  H       14.161      -7.431       4.087
  H       13.532      -8.123       1.442
  H        8.346     -14.317       4.682
  H       15.107      -9.873       3.368
  H        9.860     -15.028       5.120
  H       15.142     -10.032       1.608
  P       13.172      -5.232       3.140
  C       12.675      -4.577       5.600
  O       12.371      -4.381       4.236
  O       12.648      -4.583       1.766
  O       14.663      -5.173       3.191
  H       13.267      -3.881       1.492
  H       11.993      -3.970       6.201
  H       13.700      -4.260       5.812
  H       12.547      -5.626       5.878
  H       18.470     -11.690       1.251
  H       16.935     -11.457       2.052
  H       18.412     -11.482       2.985

 3  4  5  6  7  8  9  10  11  12  13  24  27  28  29  30  32 0
 6-311+G(2d,p)
 ****
 34  35 0
 6-311+G(2d,p)
 ****
 1  2  14  15  16  17  18  19  20  21  22  23  25  26 0
 3-21G
 ****
 31  33  36  37  38  39  40  41  42  43  44  45  46 0
 3-21G
 ****


