%nproc=1
%NoSave
%Mem=1900MB
#P OB98/GEN NMR

erre ene a

0 1
  C      568.543     101.278      -7.856
  O      567.970     101.429      -6.563
  P      568.818     100.866      -5.316
  C      567.067      99.229      -4.336
  O      567.787     100.436      -4.153
  C      566.541      98.687      -2.992
  O      567.643      98.528      -2.043
  C      565.498      99.584      -2.333
  O      564.579      98.736      -1.629
  C      566.312     100.363      -1.312
  O      565.488     100.925      -0.289
  C      567.290      99.280      -0.861
  N      569.521     100.329       3.611
  C      568.322      99.773       3.303
  N      567.791      99.549       2.093
  C      568.656      99.925       1.121
  C      569.904     100.505       1.285
  C      570.334     100.712       2.602
  N      571.533     101.309       2.916
  N      570.466     100.803       0.054
  C      569.570     100.390      -0.830
  N      568.479      99.829      -0.233
  O      569.528     102.179      -4.731
  O      569.822      99.827      -5.695
  H      566.076     101.342       0.375
  H      570.479     102.161      -4.934
  H      567.711      99.482       4.153
  H      569.665     100.493      -1.909
  H      566.841      98.582      -0.133
  H      566.843     101.171      -1.812
  H      564.962     100.246      -3.016
  H      566.120      97.689      -3.165
  H      567.704      98.474      -4.803
  H      571.752     101.446       3.901
  H      572.122     101.643       2.176
  H      566.247      99.406      -5.034
  P      563.358      98.147      -2.479
  C      561.665      98.523      -0.553
  O      562.290      97.602      -1.425
  O      563.967      96.819      -3.142
  O      562.821      99.090      -3.507
  H      563.486      96.600      -3.956
  H      560.605      98.240      -0.453
  H      561.730      99.553      -0.925
  H      562.141      98.465       0.430
  H      567.882     101.691      -8.589
  H      568.696     100.239      -8.059
  H      569.481     101.791      -7.892

 3  4  5  6  7  8  9  10  11  12  22  25  29  30  31  32 0
 6-311+G(2d,p)
 ****
 33  36  37 0
 6-311+G(2d,p)
 ****
 1  2  13  14  15  16  17  18  19  20  21  23  24  26 0
 3-21G
 ****
 27  28  34  35  38  39  40  41  42  43  44  45  46  47  48 0
 3-21G
 ****


