%nproc=1
%NoSave
%Mem=1900MB
#P OB98/GEN NMR

erre ene a

0 1
  C      301.170    -748.561    1256.497
  O      301.217    -747.597    1255.425
  P      299.916    -747.093    1254.648
  C      300.250    -744.604    1255.252
  O      299.378    -745.736    1255.319
  C      299.879    -743.544    1256.304
  O      299.993    -744.091    1257.627
  C      300.761    -742.297    1256.302
  O      300.441    -741.445    1255.222
  C      300.485    -741.740    1257.684
  O      299.262    -740.961    1257.679
  C      300.310    -743.014    1258.535
  N      301.504    -743.302    1259.324
  C      301.453    -742.936    1260.691
  O      300.481    -742.347    1261.134
  N      302.529    -743.259    1261.483
  C      303.590    -743.805    1260.954
  N      304.615    -744.080    1261.810
  C      303.720    -744.126    1259.531
  C      302.644    -743.849    1258.783
  O      298.850    -748.146    1254.486
  O      300.438    -746.612    1253.219
  H      299.380    -740.260    1257.004
  H      299.744    -746.755    1252.547
  H      304.621    -744.540    1259.120
  H      302.642    -744.060    1257.714
  H      299.456    -742.906    1259.200
  H      301.285    -741.073    1258.041
  H      301.833    -742.606    1256.234
  H      298.826    -743.261    1256.149
  H      304.494    -743.860    1262.791
  H      300.153    -744.164    1254.247
  H      305.481    -744.509    1261.496
  H      301.306    -744.934    1255.401
  P      301.269    -741.559    1253.836
  C      299.292    -742.820    1252.768
  O      300.681    -742.795    1253.023
  O      302.767    -741.521    1253.975
  O      300.747    -740.292    1252.989
  H      301.453    -739.978    1252.415
  H      299.087    -743.463    1251.903
  H      298.926    -741.790    1252.569
  H      298.776    -743.212    1253.655
  H      302.161    -748.740    1256.859
  H      300.752    -749.477    1256.135
  H      300.563    -748.181    1257.292

 3  4  5  6  7  8  9  10  11  12  13  23  27  28  29  30  32 0
 6-311+G(2d,p)
 ****
 34  35 0
 6-311+G(2d,p)
 ****
 1  2  14  15  16  17  18  19  20  21  22  24  25  26 0
 3-21G
 ****
 31  33  36  37  38  39  40  41  42  43  44  45  46 0
 3-21G
 ****


