%nproc=1
%NoSave
%Mem=1900MB
#P OB98/GEN NMR

erre ene a

0 1
  C        8.688      40.059     -81.324
  O        7.910      40.926     -80.522
  H        8.091      39.753     -82.186
  H        8.971      39.167     -80.759
  H        9.583      40.573     -81.683
  P        8.547      41.488     -79.164
  C        8.888      43.835     -80.186
  O        9.506      42.701     -79.589
  C        8.609      44.902     -79.131
  O        9.810      45.213     -78.400
  C        8.095      46.225     -79.697
  O        6.705      46.151     -79.959
  C        8.424      47.164     -78.549
  O        7.456      46.995     -77.494
  C        9.796      46.635     -78.091
  N       12.442      50.923     -78.689
  C       11.238      50.708     -78.048
  N       10.638      51.796     -77.517
  N       10.666      49.537     -77.947
  C       11.343      48.554     -78.584
  C       12.535      48.646     -79.267
  C       13.190      49.936     -79.314
  O       14.271      50.164     -79.852
  N       12.867      47.455     -79.863
  C       11.904      46.632     -79.495
  N       10.948      47.252     -78.724
  O        9.207      40.474     -78.279
  O        7.330      42.223     -78.432
  H        7.553      46.084     -77.159
  H        6.868      41.619     -77.822
  H       12.831      51.849     -78.742
  H       11.851      45.581     -79.753
  H        9.936      46.737     -77.009
  H        8.404      48.215     -78.840
  H       10.951      52.740     -77.691
  H        8.665      46.532     -80.580
  H        9.727      51.667     -77.095
  H        7.894      44.482     -78.410
  H        7.953      43.497     -80.644
  H        9.529      44.252     -80.969
  P        6.017      47.044     -81.105
  C        5.656      44.976     -82.615
  O        6.269      46.246     -82.472
  O        6.446      48.470     -81.128
  O        4.450      46.834     -80.881
  H        4.072      47.450     -80.205
  H        5.909      44.563     -83.569
  H        4.594      45.083     -82.543
  H        6.002      44.324     -81.841

 6  7  8  9  10  11  12  13  14  15  26  29  33  34 0
 6-311+G(2d,p)
 ****
 36  38  39  40  41 0
 6-311+G(2d,p)
 ****
 1  2  3  4  5  16  17  18  19  20  21  22  23  24  25 0
 3-21G
 ****
 27  28  30  31  32  35  37  42  43  44  45  46  47 0
 3-21G
 ****
 48  49 0
 3-21G
 ****


