%nproc=1
%NoSave
%Mem=1900MB
#P OB98/GEN NMR

erre ene a

0 1
  C      110.479      18.881     131.849
  O      110.561      18.089     130.676
  P      110.047      18.740     129.300
  C      107.971      17.182     129.297
  O      108.460      18.514     129.238
  C      106.497      17.160     129.708
  O      106.039      15.778     129.737
  C      106.210      17.769     131.089
  O      104.928      18.400     131.003
  C      106.157      16.535     131.974
  O      105.534      16.751     133.228
  C      105.450      15.559     131.038
  N      103.010      11.406     132.751
  C      102.558      12.623     132.368
  N      103.268      13.677     131.915
  C      104.578      13.379     131.864
  C      105.186      12.194     132.237
  C      104.341      11.172     132.699
  N      104.806       9.934     133.097
  N      106.553      12.269     132.071
  C      106.769      13.482     131.607
  N      105.604      14.182     131.446
  O      110.606      17.731     128.194
  O      110.503      20.146     129.059
  H      104.602      17.017     133.095
  H      110.914      18.211     127.402
  H      101.484      12.768     132.436
  H      107.739      13.904     131.386
  H      104.377      15.770     130.961
  H      107.181      16.201     132.179
  H      106.954      18.509     131.399
  H      105.916      17.679     128.936
  H      108.542      16.618     130.040
  H      104.152       9.349     133.595
  H      105.802       9.844     133.249
  H      108.116      16.698     128.326
  P      104.589      19.607     132.005
  C      102.753      18.063     132.925
  O      103.856      18.888     133.241
  O      103.353      20.290     131.252
  O      105.715      20.530     132.318
  H      102.672      19.635     131.012
  H      102.417      17.565     133.838
  H      103.043      17.303     132.194
  H      101.934      18.670     132.531
  H      110.853      18.324     132.682
  H      109.459      19.149     132.028
  H      111.063      19.768     131.722

 3  4  5  6  7  8  9  10  11  12  22  25  29  30  31  32 0
 6-311+G(2d,p)
 ****
 33  36  37 0
 6-311+G(2d,p)
 ****
 1  2  13  14  15  16  17  18  19  20  21  23  24  26 0
 3-21G
 ****
 27  28  34  35  38  39  40  41  42  43  44  45  46  47  48 0
 3-21G
 ****


