%nproc=1
%NoSave
%Mem=1900MB
#P OB98/GEN NMR

erre ene a

0 1
  C       35.646      90.198    -661.313
  O       36.566      89.193    -661.704
  P       37.692      89.500    -662.800
  C       36.368      88.268    -664.622
  O       36.976      89.497    -664.243
  C       37.037      87.684    -665.864
  O       36.502      86.351    -666.098
  C       36.813      88.495    -667.163
  O       38.008      88.358    -667.944
  C       35.674      87.759    -667.835
  O       35.593      88.015    -669.225
  C       36.026      86.325    -667.470
  N       33.512      83.075    -670.514
  C       34.578      83.866    -670.737
  N       35.192      84.718    -669.878
  C       34.555      84.715    -668.688
  C       33.428      83.984    -668.333
  C       32.907      83.115    -669.308
  N       31.838      82.283    -669.096
  N       33.048      84.288    -667.034
  C       33.937      85.185    -666.627
  N       34.888      85.421    -667.572
  O       38.922      88.655    -662.704
  O       38.048      91.052    -662.563
  H       36.381      87.646    -669.659
  H       38.915      91.125    -662.125
  H       35.038      83.804    -671.735
  H       33.920      85.684    -665.667
  H       36.836      85.926    -668.091
  H       34.722      88.058    -667.380
  H       36.597      89.557    -666.973
  H       38.102      87.576    -665.665
  H       35.316      88.472    -664.834
  H       31.631      81.600    -669.820
  H       31.545      82.083    -668.140
  H       36.428      87.556    -663.794
  P       38.785      89.662    -668.456
  C       38.741      88.835    -670.877
  O       38.364      89.876    -669.987
  O       40.253      89.694    -668.187
  O       38.036      90.869    -667.715
  H       38.591      91.679    -667.729
  H       39.800      88.967    -671.163
  H       38.125      88.896    -671.781
  H       38.619      87.852    -670.421
  H       34.978      89.803    -660.577
  H       35.087      90.521    -662.166
  H       36.179      91.029    -660.901

 3  4  5  6  7  8  9  10  11  12  22  25  29  30  31  32 0
 6-311+G(2d,p)
 ****
 33  36  37 0
 6-311+G(2d,p)
 ****
 1  2  13  14  15  16  17  18  19  20  21  23  24  26 0
 3-21G
 ****
 27  28  34  35  38  39  40  41  42  43  44  45  46  47  48 0
 3-21G
 ****


