%nproc=1
%NoSave
%Mem=1900MB
#P OB98/GEN NMR

erre ene a

0 1
  C     -307.779     304.461     193.595
  O     -307.464     305.211     192.433
  P     -307.771     306.784     192.466
  C     -309.172     306.400     190.304
  O     -309.088     307.024     191.584
  C     -310.244     307.083     189.457
  O     -311.551     306.825     190.011
  C     -310.124     308.602     189.386
  O     -309.081     308.992     188.511
  C     -311.526     308.962     188.904
  O     -311.646     308.743     187.489
  C     -312.399     307.954     189.678
  N     -315.793     311.276     191.593
  C     -315.438     310.985     190.320
  N     -314.508     310.104     189.890
  C     -313.922     309.486     190.930
  C     -314.163     309.695     192.280
  C     -315.153     310.637     192.598
  N     -315.512     310.940     193.894
  N     -313.356     308.897     193.056
  C     -312.644     308.203     192.191
  N     -312.963     308.510     190.891
  O     -306.598     307.408     191.570
  O     -307.802     307.390     193.837
  H     -312.587     308.880     187.254
  H     -306.337     308.287     191.903
  H     -315.966     311.527     189.539
  H     -311.894     307.463     192.448
  H     -313.234     307.574     189.070
  H     -311.787     310.012     189.095
  H     -309.946     309.017     190.380
  H     -310.207     306.647     188.449
  H     -309.434     305.348     190.428
  H     -316.115     311.731     194.045
  H     -314.937     310.565     194.645
  H     -308.192     306.453     189.818
  P     -308.557     310.502     188.619
  C     -309.163     310.844     186.144
  O     -309.383     311.270     187.473
  O     -307.093     310.387     187.979
  O     -308.624     311.093     189.983
  H     -307.107     309.905     187.139
  H     -309.816     311.406     185.475
  H     -309.390     309.782     186.045
  H     -308.119     311.035     185.860
  H     -307.525     303.434     193.436
  H     -308.826     304.542     193.799
  H     -307.224     304.842     194.427

 3  4  5  6  7  8  9  10  11  12  22  25  29  30  31  32 0
 6-311+G(2d,p)
 ****
 33  36  37 0
 6-311+G(2d,p)
 ****
 1  2  13  14  15  16  17  18  19  20  21  23  24  26 0
 3-21G
 ****
 27  28  34  35  38  39  40  41  42  43  44  45  46  47  48 0
 3-21G
 ****


