%nproc=1
%NoSave
%Mem=1900MB
#P OB98/GEN NMR

erre ene a

0 1
  C      332.735     395.003     581.785
  O      331.355     394.967     581.472
  H      333.015     396.036     581.996
  H      333.323     394.651     580.934
  H      332.949     394.394     582.666
  P      330.659     393.540     581.214
  C      328.802     394.117     579.535
  O      329.112     393.839     580.891
  C      327.509     394.922     579.438
  O      326.406     394.099     579.897
  C      327.507     396.203     580.286
  O      326.819     397.226     579.562
  C      326.717     395.821     581.517
  O      326.091     396.942     582.130
  C      325.718     394.812     580.942
  N      321.571     392.794     582.997
  C      321.708     393.636     581.918
  N      320.564     394.027     581.300
  N      322.856     394.066     581.475
  C      323.914     393.590     582.174
  C      323.904     392.746     583.258
  C      322.632     392.287     583.749
  O      322.442     391.546     584.708
  N      325.186     392.509     583.717
  C      325.955     393.207     582.898
  N      325.237     393.891     581.957
  O      330.879     392.517     582.280
  O      331.251     393.073     579.807
  H      326.799     397.535     582.452
  H      331.967     392.424     579.931
  H      320.653     392.496     583.298
  H      327.041     393.259     582.961
  H      324.829     395.295     580.506
  H      327.375     395.348     582.255
  H      319.645     393.722     581.576
  H      328.522     396.550     580.536
  H      320.650     394.634     580.489
  H      327.314     395.156     578.379
  H      328.680     393.166     579.006
  H      329.627     394.682     579.076
  P      327.673     398.354     578.807
  C      326.141     400.406     579.108
  O      326.649     399.435     578.200
  O      328.711     397.848     577.852
  O      328.352     399.164     580.020
  H      329.204     399.523     579.714
  H      325.475     401.065     578.590
  H      326.953     400.970     579.518
  H      325.613     399.914     579.898

 6  7  8  9  10  11  12  13  14  15  26  29  33  34 0
 6-311+G(2d,p)
 ****
 36  38  39  40  41 0
 6-311+G(2d,p)
 ****
 1  2  3  4  5  16  17  18  19  20  21  22  23  24  25 0
 3-21G
 ****
 27  28  30  31  32  35  37  42  43  44  45  46  47 0
 3-21G
 ****
 48  49 0
 3-21G
 ****


