%nproc=1
%NoSave
%Mem=1900MB
#P OB98/GEN NMR

erre ene a

0 1
  C     -894.110     555.094    -170.934
  O     -893.880     553.841    -171.534
  H     -893.160     555.503    -170.580
  H     -894.780     555.004    -170.074
  H     -894.540     555.790    -171.658
  P     -895.150     552.971    -171.992
  C     -895.700     552.500    -169.505
  O     -895.430     551.951    -170.788
  C     -896.800     551.688    -168.821
  O     -898.010     551.707    -169.619
  C     -896.460     550.225    -168.644
  O     -895.540     550.047    -167.576
  C     -897.830     549.605    -168.433
  O     -898.290     549.797    -167.087
  C     -898.670     550.425    -169.424
  N     -898.890     549.737    -170.700
  C     -899.520     548.495    -170.611
  O     -899.870     548.033    -169.530
  N     -899.710     547.787    -171.799
  C     -899.330     548.285    -172.927
  N     -899.560     547.543    -174.037
  C     -898.670     549.602    -173.051
  C     -898.480     550.283    -171.902
  O     -895.090     552.350    -173.351
  O     -896.380     554.010    -171.868
  H     -899.240     549.540    -167.088
  H     -896.500     554.489    -172.709
  H     -898.380     549.988    -174.013
  H     -898.010     551.239    -171.901
  H     -899.660     550.661    -168.978
  H     -897.830     548.540    -168.631
  H     -896.030     549.806    -169.570
  H     -897.040     552.154    -167.860
  H     -900.000     546.638    -173.927
  H     -896.020     553.531    -169.651
  H     -899.380     547.870    -174.981
  H     -894.800     552.496    -168.895
  P     -894.180     549.208    -167.774
  C     -895.210     546.849    -167.578
  O     -894.400     547.833    -166.966
  O     -892.920     549.943    -167.464
  O     -894.290     548.730    -169.304
  H     -894.110     549.480    -169.924
  H     -895.273     545.992    -166.940
  H     -894.779     546.565    -168.515
  H     -896.190     547.245    -167.742

 6  7  8  9  10  11  12  13  14  15  16  26  30  31  32  33  35 0
 6-311+G(2d,p)
 ****
 37  38 0
 6-311+G(2d,p)
 ****
 1  2  3  4  5  17  18  19  20  21  22  23  24  25 0
 3-21G
 ****
 27  28  29  34  36  39  40  41  42  43  44  45  46 0
 3-21G
 ****


