%nproc=1
%NoSave
%Mem=1900MB
#P OB98/GEN NMR

erre ene a

0 1
  C      -85.203     145.875    -123.967
  O      -85.170     145.881    -122.548
  P      -83.845     146.436    -121.836
  C      -85.063     148.585    -121.072
  O      -83.978     148.036    -121.807
  C      -84.786     150.036    -120.696
  O      -86.001     150.623    -120.154
  C      -83.679     150.217    -119.645
  O      -82.834     151.310    -120.033
  C      -84.437     150.641    -118.400
  O      -83.623     151.397    -117.510
  C      -85.589     151.424    -119.030
  N      -89.277     154.693    -117.933
  C      -88.480     154.608    -119.056
  N      -88.657     155.565    -119.995
  N      -87.588     153.671    -119.246
  C      -87.544     152.763    -118.241
  C      -88.287     152.737    -117.082
  C      -89.227     153.814    -116.860
  O      -89.897     153.996    -115.846
  N      -87.969     151.647    -116.311
  C      -87.034     151.019    -116.996
  N      -86.707     151.683    -118.153
  O      -82.711     146.168    -122.932
  O      -83.503     145.791    -120.537
  H      -84.224     151.837    -116.878
  H      -81.996     145.627    -122.544
  H      -89.935     155.446    -117.831
  H      -86.546     150.104    -116.683
  H      -85.233     152.390    -119.411
  H      -84.794     149.748    -117.874
  H      -89.349     156.293    -119.928
  H      -83.071     149.323    -119.474
  H      -88.097     155.505    -120.835
  H      -84.544     150.593    -121.611
  H      -85.210     148.000    -120.157
  H      -85.972     148.521    -121.679
  P      -81.421     151.408    -119.275
  C      -80.832     149.262    -120.629
  O      -80.759     149.957    -119.399
  O      -81.834     151.511    -117.733
  O      -80.575     152.555    -119.719
  H      -81.130     151.951    -117.220
  H      -81.215     149.893    -121.436
  H      -81.492     148.401    -120.512
  H      -79.833     148.912    -120.899
  H      -86.140     145.481    -124.300
  H      -84.407     145.265    -124.340
  H      -85.086     146.874    -124.331

 3  4  5  6  7  8  9  10  11  12  23  26  30  31  33  0
 6-311+G(2d,p)
 ****
 35  36  37  38 0
 6-311+G(2d,p)
 ****
 1  2  13  14  15  16  17  18  19  20  21  22  24  25  27  28  29 0
 3-21G
 ****
 32  34  39  40  41  42  43  44  45  46  47  48  49 0
 3-21G
 ****


