%nproc=1
%NoSave
%Mem=1900MB
#P OB98/GEN NMR

erre ene a

0 1
  C      985.278     627.824     838.681
  O      986.679     627.745     838.967
  P      987.628     627.057     837.872
  C      988.407     625.032     839.323
  O      988.771     626.229     838.628
  C      989.622     624.484     840.096
  O      990.595     623.922     839.200
  C      990.354     625.532     840.870
  O      989.660     625.871     842.079
  C      991.712     624.881     841.103
  O      991.731     624.128     842.337
  C      991.859     623.966     839.883
  N      992.933     624.383     838.981
  C      994.233     624.139     839.437
  O      994.436     623.622     840.547
  N      995.288     624.517     838.633
  C      995.062     625.111     837.509
  N      996.140     625.462     836.752
  C      993.697     625.410     837.007
  C      992.685     625.025     837.783
  O      988.426     628.296     837.239
  O      986.871     626.287     836.819
  H      992.008     624.774     843.024
  H      988.608     628.136     836.301
  H      993.544     625.912     836.056
  H      991.652     625.196     837.511
  H      992.064     622.941     840.210
  H      992.506     625.630     841.201
  H      990.474     626.455     840.270
  H      989.245     623.698     840.774
  H      997.056     625.242     837.125
  H      988.035     624.281     838.607
  H      996.082     625.938     835.854
  H      987.574     625.269     839.991
  P      988.824     627.233     842.125
  C      990.858     628.401     843.148
  O      989.470     628.090     843.299
  O      987.423     626.765     842.786
  O      988.587     627.928     840.803
  H      986.796     627.499     842.777
  H      991.123     629.156     843.906
  H      991.059     628.812     842.168
  H      991.461     627.506     843.335
  H      984.774     628.303     839.494
  H      984.885     626.838     838.550
  H      985.128     628.390     837.785

 3  4  5  6  7  8  9  10  11  12  13  21  23  27  28  29  30  32 0
 6-311+G(2d,p)
 ****
 34  35 0
 6-311+G(2d,p)
 ****
 1  2  14  15  16  17  18  19  20  22  24  25  26 0
 3-21G
 ****
 31  33  36  37  38  39  40  41  42  43  44  45  46 0
 3-21G
 ****


