%nproc=1
%NoSave
%Mem=1900MB
#P OB98/GEN NMR

erre ene a

0 1
  C     -241.688      89.579     -41.686
  O     -240.596      90.040     -40.919
  H     -242.390      89.065     -41.026
  H     -241.341      88.871     -42.443
  H     -242.203      90.416     -42.167
  P     -239.511      90.964     -41.657
  C     -240.714      93.229     -41.247
  O     -240.300      92.257     -42.195
  C     -240.724      94.623     -41.881
  O     -241.619      94.607     -43.023
  C     -241.193      95.725     -40.930
  O     -240.414      96.900     -41.173
  C     -242.630      95.978     -41.348
  O     -243.080      97.291     -41.020
  C     -242.570      95.676     -42.852
  N     -243.887      95.318     -43.375
  C     -244.971      96.069     -42.915
  O     -244.797      96.974     -42.097
  N     -246.234      95.742     -43.339
  C     -246.408      94.701     -44.093
  N     -247.687      94.410     -44.456
  C     -245.300      93.840     -44.550
  C     -244.079      94.207     -44.164
  O     -239.184      90.153     -42.996
  O     -238.288      91.271     -40.862
  H     -242.617      97.928     -41.606
  H     -238.260      90.294     -43.277
  H     -245.498      92.965     -45.154
  H     -243.203      93.631     -44.443
  H     -242.196      96.546     -43.406
  H     -243.290      95.259     -40.844
  H     -241.110      95.450     -39.874
  H     -239.719      94.836     -42.264
  H     -248.424      95.016     -44.108
  H     -240.013      93.227     -40.406
  H     -247.945      93.599     -45.002
  H     -241.711      92.972     -40.874
  P     -238.847      96.813     -40.843
  C     -237.990      96.313     -43.243
  O     -238.164      95.836     -41.914
  O     -238.805      95.972     -39.481
  O     -238.191      98.145     -40.689
  H     -238.563      96.554     -38.737
  H     -237.525      95.554     -43.836
  H     -237.371      97.186     -43.231
  H     -238.944      96.558     -43.662

 6  7  8  9  10  11  12  13  14  15  16  26  30  31  32  33  35 0
 6-311+G(2d,p)
 ****
 37  38 0
 6-311+G(2d,p)
 ****
 1  2  3  4  5  17  18  19  20  21  22  23  24  25 0
 3-21G
 ****
 27  28  29  34  36  39  40  41  42  43  44  45  46 0
 3-21G
 ****


