%nproc=1
%NoSave
%Mem=1900MB
#P OB98/GEN NMR

erre ene a

0 1
  C      -97.314    -756.346      12.033
  O      -96.574    -755.566      11.097
  P      -96.952    -754.004      10.974
  C      -94.627    -753.023      10.303
  O      -95.608    -753.188      11.310
  C      -93.342    -752.440      10.921
  O      -92.705    -753.418      11.763
  C      -92.301    -752.001       9.885
  O      -92.606    -750.723       9.367
  C      -91.028    -752.046      10.707
  O      -90.886    -750.850      11.523
  C      -91.268    -753.267      11.610
  N      -87.012    -755.516       9.977
  C      -87.280    -754.179      10.272
  N      -86.236    -753.338      10.145
  N      -88.436    -753.717      10.641
  C      -89.390    -754.672      10.704
  C      -89.271    -756.029      10.448
  C      -87.970    -756.541      10.082
  O      -87.673    -757.725       9.926
  N      -90.464    -756.688      10.608
  C      -91.307    -755.744      11.015
  N      -90.689    -754.505      11.102
  O      -97.874    -753.749      12.250
  O      -97.607    -753.607       9.697
  H      -90.164    -750.994      12.164
  H      -98.831    -753.783      11.991
  H      -86.104    -755.821       9.716
  H      -92.348    -755.888      11.245
  H      -90.844    -753.133      12.622
  H      -90.132    -752.105      10.095
  H      -85.312    -753.608       9.833
  H      -92.238    -752.755       9.079
  H      -86.385    -752.356      10.347
  H      -93.640    -751.585      11.546
  H      -95.006    -752.341       9.535
  H      -94.404    -753.999       9.830
  P      -93.247    -750.644       7.893
  C      -95.642    -750.167       8.820
  O      -94.801    -751.011       8.031
  O      -92.614    -751.933       7.158
  O      -92.942    -749.393       7.159
  H      -92.444    -751.707       6.221
  H      -96.638    -750.192       8.429
  H      -95.262    -749.138       8.812
  H      -95.641    -750.546       9.854
  H      -96.963    -757.356      12.012
  H      -98.352    -756.324      11.774
  H      -97.183    -755.943      13.016

 3  4  5  6  7  8  9  10  11  12  23  26  30  31 0
 6-311+G(2d,p)
 ****
 33  35  36  37  38 0
 6-311+G(2d,p)
 ****
 1  2  13  14  15  16  17  18  19  20  21  22  24  25 0
 3-21G
 ****
 27  28  29  32  34  39  40  41  42  43  44  45  46  47  48  49 0
 3-21G
 ****


