%nproc=1
%NoSave
%Mem=1900MB
#P OB98/GEN NMR

erre ene a

0 1
  C      -89.573     448.432     120.364
  O      -89.188     449.517     119.536
  P      -90.062     449.933     118.267
  C      -88.219     449.725     116.408
  O      -89.089     450.544     117.161
  C      -88.104     450.298     114.990
  O      -89.376     450.220     114.315
  C      -87.669     451.762     115.009
  O      -86.261     451.868     114.859
  C      -88.450     452.352     113.851
  O      -87.780     452.081     112.606
  C      -89.777     451.562     113.932
  N      -90.802     452.022     114.887
  C      -91.560     453.152     114.590
  O      -91.452     453.795     113.549
  N      -92.449     453.544     115.561
  C      -92.675     452.898     116.743
  O      -93.278     453.382     117.693
  C      -92.048     451.579     116.871
  C      -91.140     451.217     115.967
  O      -90.875     451.209     118.788
  O      -90.969     448.872     117.737
  H      -87.708     451.113     112.522
  H      -91.780     450.956     119.058
  H      -92.900     454.441     115.414
  H      -92.306     450.972     117.729
  H      -90.637     450.259     116.062
  H      -90.254     451.499     112.949
  H      -88.513     453.436     113.933
  H      -88.000     452.242     115.939
  H      -87.384     449.695     114.421
  H      -88.604     448.700     116.379
  H      -87.235     449.686     116.884
  P      -85.355     452.229     116.128
  C      -84.150     454.255     115.123
  O      -84.034     452.905     115.521
  O      -85.123     451.112     117.090
  O      -86.144     453.447     116.808
  H      -86.693     453.115     117.548
  H      -83.152     454.645     114.901
  H      -84.600     454.855     115.919
  H      -84.763     454.323     114.219
  H      -88.861     448.316     121.154
  H      -89.609     447.535     119.782
  H      -90.539     448.627     120.780

 3  4  5  6  7  8  9  10  11  12  13  23  28  29  30  31  32 0
 6-311+G(2d,p)
 ****
 33  34 0
 6-311+G(2d,p)
 ****
 1  2  14  15  16  17  18  19  20  21  22  24  25  26  27 0
 3-21G
 ****
 35  36  37  38  39  40  41  42  43  44  45 0
 3-21G
 ****


