%nproc=1
%NoSave
%Mem=1900MB
#P OB98/GEN NMR

erre ene a

0 1
  C      529.974     446.604    -123.843
  O      528.999     445.585    -123.944
  H      530.078     446.886    -122.792
  H      529.679     447.489    -124.418
  H      530.942     446.234    -124.201
  P      528.464     445.193    -125.410
  C      527.026     447.334    -125.474
  O      528.058     446.588    -126.105
  C      526.379     448.318    -126.445
  O      525.264     448.996    -125.825
  C      527.302     449.438    -126.909
  O      528.387     449.018    -127.709
  C      526.317     450.454    -127.459
  O      525.916     450.160    -128.796
  C      525.113     450.268    -126.493
  N      525.008     451.359    -125.537
  C      524.517     452.573    -126.046
  O      524.215     452.733    -127.223
  N      524.412     453.597    -125.150
  C      524.791     453.560    -123.833
  O      524.695     454.517    -123.086
  C      525.329     452.271    -123.362
  C      525.409     451.253    -124.224
  O      527.379     444.156    -125.453
  O      529.794     444.766    -126.195
  H      525.362     450.900    -129.098
  H      529.569     444.270    -127.027
  H      524.052     454.474    -125.497
  H      525.647     452.201    -122.339
  H      525.802     450.286    -123.898
  H      524.181     450.220    -127.066
  H      526.728     451.468    -127.454
  H      527.756     449.896    -126.014
  H      525.991     447.747    -127.297
  H      527.469     447.883    -124.640
  H      526.273     446.648    -125.074
  P      529.917     449.365    -127.396
  C      530.004     451.249    -129.216
  O      530.198     450.886    -127.851
  O      530.922     448.324    -127.756
  O      529.896     449.492    -125.789
  H      530.759     449.178    -125.468
  H      530.233     452.286    -129.345
  H      528.985     451.072    -129.491
  H      530.648     450.661    -129.836

 6  7  8  9  10  11  12  13  14  15  16  26  31  32  33  34  35 0
 6-311+G(2d,p)
 ****
 36  37 0
 6-311+G(2d,p)
 ****
 1  2  3  4  5  17  18  19  20  21  22  23  24  25 0
 3-21G
 ****
 27  28  29  30  38  39  40  41  42  43  44  45 0
 3-21G
 ****


