%nproc=1
%NoSave
%Mem=1900MB
#P OB98/GEN NMR

erre ene a

0 1
  C     1179.024    -872.739    -630.933
  O     1178.292    -872.807    -629.723
  H     1180.085    -872.870    -630.705
  H     1178.884    -871.754    -631.392
  H     1178.711    -873.520    -631.622
  P     1176.699    -872.911    -629.784
  C     1177.027    -875.455    -629.498
  O     1176.353    -874.421    -630.206
  C     1176.295    -876.787    -629.668
  O     1175.088    -876.763    -628.856
  C     1175.868    -877.095    -631.120
  O     1175.920    -878.521    -631.281
  C     1174.432    -876.589    -631.110
  O     1173.715    -877.049    -632.223
  C     1173.990    -877.098    -629.732
  N     1172.739    -876.516    -629.272
  C     1171.605    -877.317    -629.285
  O     1171.615    -878.495    -629.636
  N     1170.446    -876.722    -628.888
  C     1170.295    -875.422    -628.485
  O     1169.234    -874.942    -628.113
  C     1171.524    -874.607    -628.523
  C     1172.670    -875.181    -628.902
  O     1176.016    -871.855    -630.593
  O     1176.255    -872.856    -628.246
  H     1175.986    -871.941    -628.019
  H     1173.424    -877.979    -632.091
  H     1169.620    -877.298    -628.883
  H     1171.441    -873.573    -628.231
  H     1173.591    -874.605    -628.945
  H     1173.901    -878.184    -629.727
  H     1174.412    -875.502    -631.146
  H     1176.510    -876.606    -631.861
  H     1176.933    -877.590    -629.261
  H     1177.067    -875.180    -628.438
  H     1178.053    -875.540    -629.878
  P     1176.703    -879.237    -632.486
  C     1178.579    -880.080    -630.918
  O     1178.272    -879.349    -632.094
  O     1176.469    -878.609    -633.813
  O     1176.200    -880.757    -632.479
  H     1176.158    -881.085    -633.392
  H     1179.638    -880.083    -630.766
  H     1178.231    -881.086    -631.023
  H     1178.099    -879.622    -630.078

 6  7  8  9  10  11  12  13  14  15  16  27  31  32  33  34  35 0
 6-311+G(2d,p)
 ****
 36  37 0
 6-311+G(2d,p)
 ****
 1  2  3  4  5  17  18  19  20  21  22  23  24  25 0
 3-21G
 ****
 26  28  29  30  38  39  40  41  42  43  44  45 0
 3-21G
 ****


