%nproc=1
%NoSave
%Mem=1900MB
#P OB98/GEN NMR

erre ene a

0 1
  C     1013.309     172.711     222.166
  O     1012.352     171.793     221.709
  P     1012.882     170.513     220.860
  C     1013.660     169.128     222.924
  O     1012.722     169.239     221.848
  C     1013.062     168.297     224.044
  O     1012.142     169.104     224.832
  C     1012.276     167.069     223.620
  O     1013.119     165.966     223.325
  C     1011.446     166.806     224.862
  O     1012.252     166.129     225.857
  C     1011.107     168.229     225.346
  N     1006.127     168.481     226.492
  C     1007.170     167.871     227.099
  N     1008.467     167.835     226.733
  C     1008.645     168.483     225.562
  C     1007.653     169.128     224.796
  C     1006.370     169.104     225.308
  N     1005.298     169.745     224.687
  N     1008.224     169.656     223.659
  C     1009.490     169.384     223.744
  N     1009.810     168.684     224.889
  O     1014.454     170.765     220.800
  O     1012.271     170.366     219.511
  H     1011.799     166.255     226.715
  H     1014.831     170.288     220.025
  H     1006.936     167.351     228.032
  H     1010.241     169.676     223.026
  H     1011.128     168.325     226.415
  H     1010.583     166.167     224.674
  H     1011.617     167.306     222.785
  H     1013.898     168.021     224.720
  H     1013.929     170.118     223.286
  H     1004.460     169.824     225.204
  H     1005.505     170.371     223.924
  H     1014.583     168.637     222.524
  P     1012.561     164.878     222.283
  C     1014.682     165.363     220.863
  O     1013.841     164.376     221.477
  O     1011.741     165.785     221.221
  O     1011.712     163.831     222.912
  H     1011.071     165.258     220.802
  H     1015.654     164.888     220.640
  H     1014.878     166.203     221.541
  H     1014.237     165.721     219.953
  H     1012.821     173.496     222.705
  H     1013.834     173.125     221.330
  H     1014.002     172.212     222.811

 3  4  5  6  7  8  9  10  11  12  22  25  29  30  31  32 0
 6-311+G(2d,p)
 ****
 33  36  37 0
 6-311+G(2d,p)
 ****
 1  2  13  14  15  16  17  18  19  20  21  23  24  26 0
 3-21G
 ****
 27  28  34  35  38  39  40  41  42  43  44  45  46  47  48 0
 3-21G
 ****


