%nproc=1
%NoSave
%Mem=1900MB
#P OB98/GEN NMR

erre ene a

0 1
  C      965.072    -592.135    -398.897
  O      966.156    -592.349    -397.986
  P      967.606    -592.869    -398.444
  C      968.962    -590.841    -397.607
  O      968.552    -591.598    -398.739
  C      969.683    -589.551    -398.028
  O      970.805    -589.864    -398.927
  C      968.786    -588.529    -398.754
  O      969.193    -587.238    -398.294
  C      969.173    -588.744    -400.209
  O      968.816    -587.676    -401.059
  C      970.683    -588.972    -400.054
  N      971.362    -589.520    -401.217
  C      972.677    -589.990    -401.041
  O      973.253    -589.889    -399.964
  N      973.319    -590.558    -402.113
  C      972.724    -590.638    -403.271
  N      973.415    -591.219    -404.284
  C      971.356    -590.143    -403.491
  C      970.750    -589.605    -402.445
  O      967.561    -593.844    -399.572
  O      968.252    -593.538    -397.144
  H      968.790    -594.306    -397.406
  H      969.152    -587.880    -401.948
  H      970.890    -590.232    -404.467
  H      969.725    -589.242    -402.523
  H      971.165    -588.022    -399.756
  H      968.668    -589.644    -400.575
  H      967.727    -588.658    -398.548
  H      970.127    -589.105    -397.132
  H      974.347    -591.553    -404.077
  H      969.654    -591.451    -397.013
  H      973.047    -591.337    -405.214
  H      968.088    -590.614    -396.993
  P      968.300    -586.440    -397.228
  C      970.071    -586.220    -395.325
  O      968.852    -586.802    -395.765
  O      966.930    -587.290    -397.268
  O      968.024    -585.007    -397.532
  H      966.191    -586.721    -396.990
  H      969.944    -585.875    -394.302
  H      970.382    -585.380    -395.947
  H      970.840    -586.994    -395.350
  H      964.215    -591.790    -398.357
  H      964.836    -593.054    -399.392
  H      965.355    -591.401    -399.623

 3  4  5  6  7  8  9  10  11  12  13  24  27  28  29  30  32 0
 6-311+G(2d,p)
 ****
 34  35 0
 6-311+G(2d,p)
 ****
 1  2  14  15  16  17  18  19  20  21  22  23  25  26 0
 3-21G
 ****
 31  33  36  37  38  39  40  41  42  43  44  45  46 0
 3-21G
 ****


