%nproc=1
%NoSave
%Mem=1900MB
#P OB98/GEN NMR

erre ene a

0 1
  C     -366.148    -231.508     168.613
  O     -365.735    -230.498     167.711
  H     -365.920    -232.484     168.176
  H     -367.225    -231.442     168.791
  H     -365.608    -231.408     169.561
  P     -366.029    -228.982     168.136
  C     -368.185    -227.559     168.441
  O     -367.618    -228.860     168.331
  C     -369.690    -227.680     168.668
  O     -369.944    -228.201     169.995
  C     -370.432    -226.348     168.607
  O     -370.652    -225.918     167.272
  C     -371.720    -226.704     169.330
  O     -372.667    -227.331     168.450
  C     -371.233    -227.695     170.412
  N     -371.181    -227.085     171.735
  C     -372.381    -227.066     172.445
  O     -373.426    -227.532     172.002
  N     -372.343    -226.463     173.673
  C     -371.261    -225.845     174.232
  O     -371.310    -225.252     175.303
  C     -370.012    -225.905     173.439
  C     -370.034    -226.502     172.248
  O     -365.746    -228.168     166.785
  O     -365.212    -228.476     169.282
  H     -364.876    -227.728     166.839
  H     -372.873    -226.668     167.755
  H     -373.207    -226.431     174.192
  H     -369.131    -225.425     173.856
  H     -369.135    -226.533     171.639
  H     -371.909    -228.560     170.465
  H     -372.214    -225.818     169.743
  H     -369.902    -225.587     169.187
  H     -370.102    -228.386     167.937
  H     -368.009    -227.006     167.512
  H     -367.701    -227.028     169.271
  P     -370.400    -224.375     166.917
  C     -371.644    -222.137     167.494
  O     -371.599    -223.545     167.586
  O     -370.742    -224.361     165.349
  O     -369.031    -223.895     167.272
  H     -371.461    -224.964     165.110
  H     -372.514    -221.774     168.000
  H     -371.683    -221.848     166.465
  H     -370.768    -221.722     167.948

 6  7  8  9  10  11  12  13  14  15  16  27  31  32  33  34  35 0
 6-311+G(2d,p)
 ****
 36  37 0
 6-311+G(2d,p)
 ****
 1  2  3  4  5  17  18  19  20  21  22  23  24  25 0
 3-21G
 ****
 26  28  29  30  38  39  40  41  42  43  44  45 0
 3-21G
 ****


