%nproc=1
%NoSave
%Mem=1900MB
#P OB98/GEN NMR

erre ene a

0 1
  C       58.337      29.438    -140.334
  O       58.521      28.739    -141.567
  P       59.795      27.765    -141.663
  C       58.245      25.810    -142.369
  O       59.433      26.542    -142.639
  C       57.804      24.975    -143.577
  O       57.105      25.796    -144.549
  C       58.965      24.296    -144.309
  O       58.483      23.045    -144.809
  C       59.220      25.225    -145.481
  O       59.916      24.555    -146.529
  C       57.780      25.658    -145.817
  N       57.720      26.888    -146.600
  C       57.453      26.761    -147.965
  O       57.351      25.644    -148.477
  N       57.352      27.895    -148.732
  C       57.552      29.058    -148.190
  N       57.443      30.146    -149.001
  C       57.897      29.238    -146.765
  C       57.958      28.123    -146.040
  O       59.857      27.089    -140.213
  O       61.070      28.478    -141.987
  H       59.331      23.851    -146.883
  H       60.760      27.156    -139.851
  H       58.074      30.222    -146.361
  H       58.199      28.151    -144.985
  H       57.266      24.874    -146.385
  H       59.817      26.088    -145.161
  H       59.842      24.129    -143.676
  H       57.097      24.213    -143.224
  H       57.196      29.982    -149.972
  H       57.441      26.495    -142.096
  H       57.578      31.093    -148.687
  H       58.413      25.174    -141.492
  P       59.063      21.698    -144.167
  C       56.684      20.785    -143.836
  O       57.940      20.588    -144.460
  O       58.842      21.967    -142.599
  O       60.478      21.318    -144.458
  H       59.225      21.233    -142.082
  H       55.984      20.037    -144.214
  H       56.295      21.782    -144.069
  H       56.779      20.662    -142.756
  H       57.461      30.049    -140.398
  H       59.189      30.056    -140.144
  H       58.223      28.733    -139.538

 3  4  5  6  7  8  9  10  11  12  13  21  23  27  28  29  30  32 0
 6-311+G(2d,p)
 ****
 34  35 0
 6-311+G(2d,p)
 ****
 1  2  14  15  16  17  18  19  20  22  24  25  26 0
 3-21G
 ****
 31  33  36  37  38  39  40  41  42  43  44  45  46 0
 3-21G
 ****


