%nproc=1
%NoSave
%Mem=1900MB
#P OB98/GEN NMR

erre ene a

0 1
  C      -46.440      85.925      36.780
  O      -47.166      85.980      35.572
  H      -45.707      85.115      36.706
  H      -47.106      85.708      37.617
  H      -45.906      86.864      36.956
  P      -48.344      87.061      35.411
  C      -46.991      88.833      34.135
  O      -47.608      88.493      35.374
  C      -47.489      90.184      33.618
  O      -47.378      91.177      34.678
  C      -46.716      90.709      32.401
  O      -47.635      91.171      31.405
  C      -45.934      91.891      32.958
  O      -45.590      92.847      31.961
  C      -46.896      92.383      34.051
  N      -46.238      93.278      34.994
  C      -46.207      94.631      34.640
  O      -46.728      95.018      33.590
  N      -45.552      95.516      35.461
  C      -44.929      95.072      36.511
  N      -44.269      95.998      37.265
  C      -44.910      93.646      36.903
  C      -45.578      92.813      36.110
  O      -49.440      86.939      36.420
  O      -48.858      86.887      33.904
  H      -44.976      92.426      31.316
  H      -49.776      87.242      33.838
  H      -44.372      93.334      37.787
  H      -45.619      91.752      36.314
  H      -47.752      92.908      33.607
  H      -45.003      91.528      33.412
  H      -46.054      89.964      31.958
  H      -48.564      90.094      33.397
  H      -44.298      96.960      36.956
  H      -47.210      88.040      33.408
  H      -43.732      95.766      38.092
  H      -45.911      88.889      34.295
  P      -47.303      90.751      29.886
  C      -48.510      88.453      29.897
  O      -47.275      89.145      29.809
  O      -45.759      91.175      29.716
  O      -48.168      91.432      28.881
  H      -45.693      91.943      29.118
  H      -48.334      87.400      29.831
  H      -49.148      88.759      29.094
  H      -48.979      88.679      30.832

 6  7  8  9  10  11  12  13  14  15  16  26  30  31  32  33  35 0
 6-311+G(2d,p)
 ****
 37  38 0
 6-311+G(2d,p)
 ****
 1  2  3  4  5  17  18  19  20  21  22  23  24  25 0
 3-21G
 ****
 27  28  29  34  36  39  40  41  42  43  44  45  46 0
 3-21G
 ****


