%nproc=1
%NoSave
%Mem=1900MB
#P OB98/GEN NMR

erre ene a

0 1
  C     -116.384     163.521     -48.407
  O     -116.063     164.811     -47.922
  P     -114.529     165.284     -47.963
  C     -115.027     167.103     -49.799
  O     -114.298     165.958     -49.403
  C     -114.092     168.145     -50.416
  O     -113.418     167.551     -51.564
  C     -114.794     169.425     -50.909
  O     -113.893     170.516     -50.677
  C     -114.957     169.167     -52.398
  O     -115.122     170.369     -53.143
  C     -113.658     168.412     -52.699
  N     -113.721     167.626     -53.931
  C     -113.651     168.309     -55.145
  O     -113.566     169.531     -55.238
  N     -113.717     167.526     -56.274
  C     -113.905     166.175     -56.307
  O     -113.974     165.530     -57.346
  C     -114.017     165.513     -55.001
  C     -113.914     166.253     -53.893
  O     -113.774     163.880     -48.063
  O     -114.131     166.138     -46.808
  H     -114.257     163.223     -48.595
  H     -114.264     170.830     -53.159
  H     -113.631     167.999     -57.163
  H     -114.183     164.443     -54.989
  H     -113.992     165.789     -52.917
  H     -112.814     169.112     -52.755
  H     -115.835     168.537     -52.559
  H     -115.736     169.602     -50.386
  H     -113.313     168.394     -49.681
  H     -115.516     167.546     -48.919
  H     -115.810     166.814     -50.508
  P     -114.493     171.889     -50.081
  C     -114.222     171.040     -47.620
  O     -115.062     171.562     -48.621
  O     -115.824     172.013     -50.966
  O     -113.602     173.078     -50.212
  H     -116.341     171.193     -50.998
  H     -114.685     171.205     -46.641
  H     -113.241     171.523     -47.625
  H     -114.097     169.961     -47.772
  H     -117.437     163.356     -48.313
  H     -115.855     162.785     -47.839
  H     -116.102     163.447     -49.437

 3  4  5  6  7  8  9  10  11  12  13  24  28  29  30  31  32 0
 6-311+G(2d,p)
 ****
 33  34 0
 6-311+G(2d,p)
 ****
 1  2  14  15  16  17  18  19  20  21  22  23  25  26  27 0
 3-21G
 ****
 35  36  37  38  39  40  41  42  43  44  45 0
 3-21G
 ****


