%nproc=1
%NoSave
%Mem=1900MB
#P OB98/GEN NMR

erre ene a

0 1
  C      -34.317     -38.028      33.281
  O      -33.766     -39.287      32.933
  P      -33.836     -40.521      33.954
  C      -31.755     -39.766      35.261
  O      -33.153     -40.023      35.319
  C      -31.140     -39.809      36.659
  O      -31.480     -38.586      37.355
  C      -31.641     -40.973      37.506
  O      -30.567     -41.444      38.324
  C      -32.693     -40.354      38.410
  O      -32.839     -41.104      39.628
  C      -32.144     -38.935      38.585
  N      -34.584     -36.191      42.173
  C      -33.548     -37.054      42.253
  N      -32.967     -37.768      41.264
  C      -33.529     -37.475      40.080
  C      -34.588     -36.613      39.841
  C      -35.129     -35.952      40.958
  N      -36.177     -35.062      40.872
  N      -34.910     -36.594      38.497
  C      -34.047     -37.412      37.937
  N      -33.185     -37.961      38.849
  O      -33.301     -41.807      33.427
  O      -35.381     -40.634      34.343
  H      -33.724     -40.892      39.992
  H      -35.643     -41.571      34.426
  H      -33.131     -37.195      43.247
  H      -34.011     -37.651      36.885
  H      -31.407     -38.884      39.396
  H      -33.662     -40.351      37.898
  H      -32.042     -41.796      36.905
  H      -30.048     -39.839      36.561
  H      -31.605     -38.770      34.833
  H      -36.416     -34.546      41.704
  H      -36.465     -34.754      39.953
  H      -31.276     -40.501      34.605
  P      -30.507     -43.038      38.556
  C      -31.810     -42.946      40.807
  O      -31.786     -43.365      39.462
  O      -29.176     -43.479      39.068
  O      -30.876     -43.578      37.094
  H      -31.401     -42.919      36.588
  H      -32.740     -43.294      41.266
  H      -31.783     -41.855      40.865
  H      -30.965     -43.370      41.356
  H      -34.172     -37.340      32.475
  H      -33.831     -37.656      34.159
  H      -35.364     -38.137      33.472

 3  4  5  6  7  8  9  10  11  12  22  25  29  30  31  32 0
 6-311+G(2d,p)
 ****
 33  36  37 0
 6-311+G(2d,p)
 ****
 1  2  13  14  15  16  17  18  19  20  21  23  24  26 0
 3-21G
 ****
 27  28  34  35  38  39  40  41  42  43  44  45  46  47  48 0
 3-21G
 ****


