%nproc=1
%NoSave
%Mem=1900MB
#P OB98/GEN NMR

erre ene a

0 1
  C      163.969    -227.266    -396.402
  O      164.633    -226.681    -397.503
  H      163.359    -226.506    -395.912
  H      164.709    -227.636    -395.688
  H      163.322    -228.086    -396.725
  P      165.262    -227.672    -398.595
  C      163.238    -227.789    -400.215
  O      164.559    -227.319    -399.996
  C      163.164    -228.585    -401.519
  O      161.884    -229.285    -401.563
  C      163.270    -227.723    -402.790
  O      164.004    -228.451    -403.781
  C      161.826    -227.622    -403.247
  O      161.718    -227.340    -404.638
  C      161.306    -229.001    -402.850
  N      157.249    -229.484    -405.763
  C      158.585    -229.690    -406.044
  N      158.901    -230.020    -407.313
  N      159.534    -229.579    -405.152
  C      159.078    -229.265    -403.915
  C      157.786    -229.030    -403.512
  C      156.745    -229.139    -404.510
  O      155.547    -228.950    -404.329
  N      157.744    -228.677    -402.186
  C      159.009    -228.677    -401.800
  N      159.854    -229.027    -402.815
  O      164.618    -229.084    -398.197
  O      166.752    -227.730    -398.624
  H      162.094    -226.453    -404.799
  H      165.230    -229.574    -397.618
  H      156.558    -229.566    -406.488
  H      159.362    -228.415    -400.813
  H      161.623    -229.786    -403.550
  H      161.310    -226.831    -402.690
  H      158.224    -230.154    -408.048
  H      163.736    -226.747    -402.626
  H      159.874    -230.212    -407.525
  H      163.947    -229.352    -401.504
  H      162.558    -226.933    -400.282
  H      162.932    -228.413    -399.370
  P      165.499    -227.977    -404.113
  C      167.231    -228.916    -402.411
  O      166.520    -229.114    -403.624
  O      165.741    -226.791    -403.064
  O      165.688    -227.508    -405.517
  H      166.307    -226.107    -403.463
  H      167.865    -229.758    -402.228
  H      166.537    -228.810    -401.604
  H      167.827    -228.031    -402.487

 6  7  8  9  10  11  12  13  14  15  26  29  33  34 0
 6-311+G(2d,p)
 ****
 36  38  39  40  41 0
 6-311+G(2d,p)
 ****
 1  2  3  4  5  16  17  18  19  20  21  22  23  24  25 0
 3-21G
 ****
 27  28  30  31  32  35  37  42  43  44  45  46  47 0
 3-21G
 ****
 48  49 0
 3-21G
 ****


