%nproc=1
%NoSave
%Mem=1900MB
#P OB98/GEN NMR

erre ene a

0 1
  C      258.789     155.315    -338.753
  O      259.611     155.636    -337.649
  H      259.350     155.497    -339.674
  H      257.901     155.952    -338.751
  H      258.494     154.263    -338.722
  P      259.050     155.247    -336.198
  C      260.105     154.324    -334.014
  O      260.277     154.591    -335.397
  C      260.925     153.102    -333.603
  O      260.396     151.912    -334.231
  C      262.399     153.174    -333.998
  O      263.158     153.924    -333.058
  C      262.769     151.702    -333.955
  O      262.944     151.284    -332.587
  C      261.520     151.044    -334.555
  N      263.795     148.549    -338.338
  C      264.011     148.481    -336.976
  N      264.976     147.637    -336.559
  N      263.345     149.184    -336.096
  C      262.414     149.995    -336.656
  C      262.109     150.146    -337.990
  C      262.846     149.358    -338.949
  O      262.680     149.363    -340.167
  N      261.098     151.056    -338.172
  C      260.811     151.472    -336.953
  N      261.586     150.862    -335.998
  O      258.091     153.995    -336.493
  O      258.321     156.331    -335.479
  H      262.096     151.446    -332.133
  H      257.326     154.036    -335.887
  H      264.344     147.992    -338.970
  H      260.054     152.201    -336.711
  H      261.314     150.062    -334.119
  H      263.704     151.488    -334.477
  H      265.561     147.104    -337.184
  H      262.523     153.553    -335.018
  H      265.133     147.543    -335.563
  H      260.822     152.973    -332.519
  H      259.048     154.132    -333.809
  H      260.427     155.199    -333.440
  P      264.576     154.505    -333.547
  C      265.819     156.765    -333.233
  O      264.620     156.024    -333.035
  O      264.381     154.657    -335.128
  O      265.755     153.660    -333.204
  H      265.247     154.646    -335.575
  H      265.696     157.753    -332.842
  H      266.036     156.820    -334.279
  H      266.626     156.279    -332.726

 6  7  8  9  10  11  12  13  14  15  26  29  33  34 0
 6-311+G(2d,p)
 ****
 36  38  39  40  41 0
 6-311+G(2d,p)
 ****
 1  2  3  4  5  16  17  18  19  20  21  22  23  24  25 0
 3-21G
 ****
 27  28  30  31  32  35  37  42  43  44  45  46  47 0
 3-21G
 ****
 48  49 0
 3-21G
 ****


