%nproc=1
%NoSave
%Mem=1900MB
#P OB98/GEN NMR

erre ene a

0 1
  C       23.343     122.712    -154.475
  O       24.326     123.609    -154.969
  P       25.747     123.641    -154.226
  C       26.884     122.336    -156.148
  O       26.570     122.368    -154.763
  C       28.392     122.385    -156.363
  O       28.683     122.025    -157.743
  C       29.025     123.761    -156.103
  O       30.246     123.589    -155.368
  C       29.389     124.254    -157.493
  O       30.461     125.188    -157.464
  C       29.717     122.928    -158.180
  N       32.064     125.029    -162.127
  C       32.433     124.993    -160.797
  N       33.560     125.661    -160.469
  N       31.761     124.363    -159.871
  C       30.673     123.711    -160.350
  C       30.208     123.665    -161.645
  C       30.931     124.416    -162.647
  O       30.604     124.561    -163.824
  N       29.082     122.887    -161.744
  C       28.863     122.465    -160.512
  N       29.772     122.980    -159.622
  O       25.372     123.245    -152.722
  O       26.464     124.945    -154.279
  H       30.525     125.578    -158.356
  H       25.687     123.938    -152.110
  H       32.608     125.544    -162.794
  H       28.044     121.822    -160.213
  H       30.681     122.539    -157.822
  H       28.515     124.736    -157.944
  H       34.145     126.137    -161.137
  H       28.371     124.462    -155.575
  H       33.861     125.629    -159.503
  H       28.859     121.619    -155.731
  H       26.424     123.198    -156.642
  H       26.472     121.419    -156.584
  P       30.671     124.812    -154.417
  C       29.718     123.647    -152.292
  O       29.675     124.757    -153.167
  O       30.192     126.099    -155.235
  O       32.128     124.848    -154.095
  H       30.712     126.884    -154.975
  H       30.573     122.996    -152.495
  H       28.800     123.068    -152.410
  H       29.784     124.008    -151.262
  H       22.453     122.799    -155.063
  H       23.122     122.951    -153.456
  H       23.713     121.710    -154.534

 3  4  5  6  7  8  9  10  11  12  23  26  30  31  33  0
 6-311+G(2d,p)
 ****
 35  36  37  38 0
 6-311+G(2d,p)
 ****
 1  2  13  14  15  16  17  18  19  20  21  22  24  25  27  28  29 0
 3-21G
 ****
 32  34  39  40  41  42  43  44  45  46  47  48  49 0
 3-21G
 ****


