%nproc=1
%NoSave
%Mem=1900MB
#P OB98/GEN NMR

erre ene a

0 1
  C       80.691     924.078     183.255
  O       79.359     924.314     183.678
  P       78.128     923.608     182.942
  C       76.587     925.509     182.128
  O       77.655     924.623     181.785
  C       75.477     925.415     181.092
  O       75.904     925.910     179.801
  C       75.008     923.989     180.815
  O       74.358     923.305     181.872
  C       74.220     924.194     179.530
  O       72.903     924.672     179.786
  C       75.067     925.262     178.811
  N       75.856     924.708     177.701
  C       75.337     924.903     176.425
  O       74.283     925.500     176.210
  N       76.053     924.356     175.403
  C       77.187     923.606     175.533
  O       77.749     923.090     174.577
  C       77.680     923.412     176.910
  C       76.998     923.959     177.916
  O       77.040     923.126     183.837
  O       78.836     922.439     182.080
  H       72.982     925.547     180.216
  H       79.491     922.756     181.436
  H       75.699     924.468     174.466
  H       78.585     922.827     177.039
  H       77.339     923.831     178.937
  H       74.421     926.051     178.399
  H       74.112     923.248     178.975
  H       75.887     923.384     180.558
  H       74.640     926.057     181.425
  H       76.972     926.535     182.145
  H       76.222     925.274     183.127
  P       74.666     921.767     182.233
  C       72.923     920.650     180.675
  O       74.295     920.865     180.966
  O       74.212     921.307     183.574
  O       76.275     921.745     182.184
  H       76.604     921.085     182.830
  H       72.857     919.980     179.821
  H       72.431     921.591     180.430
  H       72.418     920.174     181.524
  H       81.365     924.638     183.869
  H       80.801     924.383     182.235
  H       80.913     923.035     183.341

 3  4  5  6  7  8  9  10  11  12  13  23  28  29  30  31  32 0
 6-311+G(2d,p)
 ****
 33  34 0
 6-311+G(2d,p)
 ****
 1  2  14  15  16  17  18  19  20  21  22  24  25  26  27 0
 3-21G
 ****
 35  36  37  38  39  40  41  42  43  44  45 0
 3-21G
 ****


