%nproc=1
%NoSave
%Mem=1900MB
#P OB98/GEN NMR

erre ene a

0 1
  C     -311.185     536.455    -618.064
  O     -312.201     537.353    -617.653
  H     -310.220     536.845    -617.743
  H     -311.190     536.353    -619.148
  H     -311.343     535.473    -617.601
  P     -313.712     536.942    -618.013
  C     -313.880     535.577    -615.799
  O     -314.433     536.612    -616.616
  C     -314.348     535.763    -614.363
  O     -313.829     536.998    -613.819
  C     -315.871     535.862    -614.206
  O     -316.503     534.583    -614.272
  C     -315.975     536.531    -612.844
  O     -315.873     535.579    -611.771
  C     -314.774     537.479    -612.831
  N     -315.103     542.180    -610.875
  C     -314.617     541.019    -610.369
  N     -314.549     539.812    -610.961
  C     -315.043     539.876    -612.218
  C     -315.564     540.987    -612.866
  C     -315.585     542.186    -612.134
  N     -316.102     543.369    -612.643
  N     -316.000     540.642    -614.138
  C     -315.742     539.355    -614.258
  N     -315.141     538.853    -613.119
  O     -313.543     535.511    -618.704
  O     -314.435     537.910    -618.891
  H     -316.707     535.054    -611.814
  H     -313.586     535.614    -619.676
  H     -314.223     541.081    -609.347
  H     -315.947     538.745    -615.123
  H     -314.251     537.469    -611.864
  H     -316.936     537.043    -612.739
  H     -316.274     536.537    -614.969
  H     -313.944     534.937    -613.742
  H     -312.780     535.628    -615.830
  H     -314.209     534.605    -616.188
  H     -316.155     544.156    -612.043
  H     -316.570     543.343    -613.542
  P     -318.030     534.561    -614.729
  C     -317.871     532.536    -616.381
  O     -318.374     533.049    -615.153
  O     -318.044     535.348    -616.129
  O     -318.989     535.161    -613.743
  H     -318.876     535.855    -616.212
  H     -318.194     531.523    -616.503
  H     -316.802     532.571    -616.371
  H     -318.239     533.128    -617.192

 6  7  8  9  10  11  12  13  14  15  25  28  32  33  34  35 0
 6-311+G(2d,p)
 ****
 36  37  40 0
 6-311+G(2d,p)
 ****
 1  2  3  4  5  16  17  18  19  20  21  22  23  24 0
 3-21G
 ****
 26  27  29  30  31  38  39 41  42  43  44  45  46  47  48 0
 3-21G
 ****


