%nproc=1
%NoSave
%Mem=1900MB
#P OB98/GEN NMR

erre ene a

0 1
  C      -85.838    -179.682    -134.769
  O      -85.399    -178.341    -134.720
  H      -86.602    -179.770    -135.548
  H      -86.281    -179.971    -133.813
  H      -85.012    -180.354    -135.014
  P      -84.159    -177.971    -133.775
  C      -82.663    -177.539    -135.828
  O      -82.827    -178.265    -134.616
  C      -82.120    -178.462    -136.916
  O      -83.068    -179.517    -137.188
  C      -81.890    -177.769    -138.253
  O      -80.725    -176.968    -138.231
  C      -81.835    -178.964    -139.188
  O      -80.538    -179.570    -139.178
  C      -82.885    -179.911    -138.566
  N      -84.152    -179.881    -139.297
  C      -84.273    -180.777    -140.353
  O      -83.391    -181.570    -140.676
  N      -85.432    -180.691    -141.077
  C      -86.388    -179.726    -140.935
  O      -87.279    -179.536    -141.756
  C      -86.237    -178.848    -139.766
  C      -85.138    -178.955    -139.018
  O      -84.190    -178.563    -132.406
  O      -84.196    -176.370    -133.718
  H      -84.588    -176.088    -132.870
  H      -80.327    -179.735    -138.236
  H      -85.508    -181.310    -141.872
  H      -87.013    -178.116    -139.576
  H      -84.987    -178.295    -138.170
  H      -82.512    -180.942    -138.555
  H      -82.061    -178.679    -140.217
  H      -82.764    -177.158    -138.508
  H      -81.193    -178.921    -136.550
  H      -81.953    -176.723    -135.656
  H      -83.629    -177.116    -136.123
  P      -80.656    -175.617    -139.088
  C      -79.781    -174.106    -137.204
  O      -80.860    -174.378    -138.093
  O      -81.521    -175.591    -140.305
  O      -79.110    -175.494    -139.492
  H      -79.048    -175.334    -140.454
  H      -80.027    -173.264    -136.592
  H      -78.899    -173.890    -137.770
  H      -79.607    -174.960    -136.583

 6  7  8  9  10  11  12  13  14  15  16  27  31  32  33  34  35 0
 6-311+G(2d,p)
 ****
 36  37 0
 6-311+G(2d,p)
 ****
 1  2  3  4  5  17  18  19  20  21  22  23  24  25 0
 3-21G
 ****
 26  28  29  30  38  39  40  41  42  43  44  45 0
 3-21G
 ****


