%nproc=1
%NoSave
%Mem=1900MB
#P OB98/GEN NMR

erre ene a

0 1
  C       65.968    -116.747     331.954
  O       66.968    -116.130     331.171
  H       65.342    -115.967     332.399
  H       66.424    -117.327     332.760
  H       65.336    -117.395     331.343
  P       67.900    -117.049     330.244
  C       69.686    -117.779     331.955
  O       69.387    -116.951     330.838
  C       71.197    -117.831     332.175
  O       71.507    -118.683     333.298
  C       71.976    -118.399     330.992
  O       72.077    -117.449     329.949
  C       73.294    -118.752     331.668
  O       74.118    -117.587     331.824
  C       72.804    -119.271     333.044
  N       72.740    -120.732     333.122
  C       73.076    -121.300     334.347
  O       73.445    -120.639     335.315
  N       72.986    -122.664     334.414
  C       72.686    -123.502     333.375
  O       72.671    -124.726     333.476
  C       72.378    -122.844     332.097
  C       72.417    -121.514     332.030
  O       67.796    -116.807     328.775
  O       67.458    -118.538     330.628
  H       73.604    -116.950     332.358
  H       66.851    -118.889     329.948
  H       73.235    -123.097     335.290
  H       72.138    -123.475     331.251
  H       72.198    -121.012     331.094
  H       73.471    -118.915     333.841
  H       73.877    -119.477     331.101
  H       71.505    -119.322     330.636
  H       71.541    -116.815     332.417
  H       69.311    -118.787     331.756
  H       69.178    -117.379     332.840
  P       71.315    -117.674     328.560
  C       72.659    -119.700     327.748
  O       72.366    -118.326     327.531
  O       70.581    -116.485     328.034
  O       70.309    -118.883     328.862
  H       69.395    -118.544     328.931
  H       73.363    -120.035     327.015
  H       71.760    -120.274     327.666
  H       73.075    -119.826     328.726

 6  7  8  9  10  11  12  13  14  15  16  26  31  32  33  34  35 0
 6-311+G(2d,p)
 ****
 36  37 0
 6-311+G(2d,p)
 ****
 1  2  3  4  5  17  18  19  20  21  22  23  24  25 0
 3-21G
 ****
 27  28  29  30  38  39  40  41  42  43  44  45 0
 3-21G
 ****


