%nproc=1
%NoSave
%Mem=1900MB
#P OB98/GEN NMR

erre ene a

0 1
  C     -226.495    -986.914     772.495
  O     -227.046    -986.052     773.456
  P     -228.094    -984.898     773.105
  C     -226.270    -983.196     772.379
  O     -227.348    -983.465     773.256
  C     -225.369    -982.039     772.842
  O     -226.142    -980.811     772.876
  C     -224.915    -982.293     774.287
  O     -223.798    -983.115     774.549
  C     -224.855    -980.912     774.919
  O     -223.527    -980.366     774.942
  C     -225.764    -980.068     774.024
  N     -228.213    -976.099     776.042
  C     -227.131    -976.112     775.208
  N     -226.519    -974.904     775.040
  N     -226.678    -977.180     774.596
  C     -227.336    -978.327     774.951
  C     -228.459    -978.428     775.753
  C     -228.969    -977.236     776.398
  O     -229.889    -977.198     777.202
  N     -228.823    -979.750     775.953
  C     -227.918    -980.420     775.276
  N     -226.981    -979.611     774.687
  O     -229.479    -985.050     773.673
  O     -228.210    -985.049     771.506
  H     -223.205    -980.336     774.024
  H     -229.132    -984.840     771.249
  H     -228.469    -975.258     776.546
  H     -227.865    -981.491     775.224
  H     -225.232    -979.179     773.683
  H     -225.177    -980.958     775.984
  H     -226.734    -974.108     775.595
  H     -225.739    -982.806     774.794
  H     -225.606    -974.921     774.579
  H     -224.551    -981.859     772.138
  H     -226.689    -982.980     771.388
  H     -225.656    -984.104     772.251
  P     -223.792    -984.489     775.373
  C     -223.889    -983.232     777.603
  O     -223.196    -984.188     776.839
  O     -222.635    -985.353     774.701
  O     -225.089    -985.225     775.356
  H     -222.795    -986.314     774.891
  H     -223.274    -982.884     778.421
  H     -224.798    -983.677     778.033
  H     -224.181    -982.381     776.981
  H     -225.824    -987.597     772.972
  H     -225.962    -986.341     771.765
  H     -227.279    -987.461     772.015

 3  4  5  6  7  8  9  10  11  12  23  26  30  31 0
 6-311+G(2d,p)
 ****
 33  35  36  37  38 0
 6-311+G(2d,p)
 ****
 1  2  13  14  15  16  17  18  19  20  21  22  24  25 0
 3-21G
 ****
 27  28  29  32  34  39  40  41  42  43  44  45  46  47  48  49 0
 3-21G
 ****


