%nproc=1
%NoSave
%Mem=1900MB
#P OB98/GEN NMR

erre ene a

0 1
  C     -410.235    -150.784     -81.408
  O     -410.433    -149.462     -80.950
  H     -410.402    -150.808     -82.489
  H     -410.949    -151.460     -80.932
  H     -409.212    -151.112     -81.205
  P     -410.251    -149.156     -79.387
  C     -412.781    -149.379     -78.871
  O     -411.482    -149.923     -78.692
  C     -413.618    -149.587     -77.610
  O     -413.740    -150.989     -77.286
  C     -413.046    -148.951     -76.348
  O     -413.175    -147.541     -76.308
  C     -413.899    -149.641     -75.299
  O     -415.214    -149.057     -75.284
  C     -413.929    -151.086     -75.847
  N     -412.901    -151.938     -75.250
  C     -412.967    -152.123     -73.865
  O     -413.848    -151.584     -73.200
  N     -412.007    -152.897     -73.252
  C     -411.053    -153.417     -73.960
  N     -410.128    -154.170     -73.303
  C     -410.933    -153.229     -75.420
  C     -411.879    -152.491     -75.992
  O     -410.098    -147.717     -79.013
  O     -409.013    -150.066     -78.941
  H     -415.797    -149.684     -74.818
  H     -408.850    -149.907     -77.980
  H     -410.100    -153.660     -75.958
  H     -411.856    -152.300     -77.061
  H     -414.911    -151.548     -75.678
  H     -413.496    -149.552     -74.288
  H     -412.000    -149.253     -76.198
  H     -414.630    -149.215     -77.824
  H     -410.234    -154.278     -72.304
  H     -413.241    -149.871     -79.734
  H     -409.306    -154.547     -73.761
  H     -412.713    -148.304     -79.067
  P     -411.960    -146.717     -75.647
  C     -412.605    -146.875     -73.120
  O     -411.762    -147.314     -74.173
  O     -412.595    -145.271     -75.403
  O     -410.706    -146.667     -76.466
  H     -412.338    -144.656     -76.118
  H     -412.333    -147.374     -72.214
  H     -413.623    -147.101     -73.360
  H     -412.495    -145.818     -72.992

 6  7  8  9  10  11  12  13  14  15  16  26  30  31  32  33  35 0
 6-311+G(2d,p)
 ****
 37  38 0
 6-311+G(2d,p)
 ****
 1  2  3  4  5  17  18  19  20  21  22  23  24  25 0
 3-21G
 ****
 27  28  29  34  36  39  40  41  42  43  44  45  46 0
 3-21G
 ****


