%nproc=1
%NoSave
%Mem=1900MB
#P OB98/GEN NMR

erre ene a

0 1
  C      -87.146     -49.940    -348.537
  O      -86.949     -51.207    -347.943
  H      -88.070     -49.962    -349.126
  H      -86.312     -49.699    -349.200
  H      -87.240     -49.167    -347.768
  P      -85.709     -51.357    -346.939
  C      -84.275     -53.161    -348.150
  O      -84.448     -51.786    -347.839
  C      -82.839     -53.404    -348.633
  O      -82.678     -52.779    -349.937
  C      -81.773     -52.803    -347.698
  O      -80.638     -53.678    -347.670
  C      -81.405     -51.502    -348.390
  O      -80.111     -51.023    -348.045
  C      -81.527     -51.902    -349.863
  N      -81.700     -50.752    -350.747
  C      -80.776     -50.596    -351.782
  O      -79.873     -51.387    -352.042
  N      -80.915     -49.448    -352.533
  C      -81.850     -48.469    -352.340
  O      -81.913     -47.452    -353.029
  C      -82.792     -48.687    -351.229
  C      -82.671     -49.803    -350.496
  O      -86.050     -52.696    -346.124
  O      -85.455     -50.190    -346.044
  H      -86.563     -52.486    -345.322
  H      -79.456     -51.704    -348.300
  H      -80.256     -49.319    -353.282
  H      -83.540     -47.928    -351.045
  H      -83.341     -49.983    -349.661
  H      -80.655     -52.485    -350.180
  H      -82.133     -50.724    -348.137
  H      -82.143     -52.639    -346.686
  H      -82.684     -54.481    -348.769
  H      -84.973     -53.440    -348.944
  H      -84.479     -53.762    -347.261
  P      -80.615     -54.824    -346.533
  C      -79.184     -53.307    -344.944
  O      -80.378     -54.044    -345.144
  O      -79.220     -55.537    -346.835
  O      -81.817     -55.712    -346.580
  H      -78.520     -54.925    -347.119
  H      -79.200     -52.859    -343.972
  H      -79.108     -52.542    -345.688
  H      -78.343     -53.964    -345.020

 6  7  8  9  10  11  12  13  14  15  16  27  31  32  33  34  35 0
 6-311+G(2d,p)
 ****
 36  37 0
 6-311+G(2d,p)
 ****
 1  2  3  4  5  17  18  19  20  21  22  23  24  25 0
 3-21G
 ****
 26  28  29  30  38  39  40  41  42  43  44  45 0
 3-21G
 ****


