%nproc=1
%NoSave
%Mem=1900MB
#P OB98/GEN NMR

erre ene a

0 1
  C      -24.707      -3.981      34.597
  O      -24.196      -3.624      35.867
  H      -23.893      -3.943      33.869
  H      -25.487      -3.278      34.295
  H      -25.110      -4.997      34.624
  P      -25.241      -3.635      37.084
  C      -26.224      -5.635      38.437
  O      -25.100      -5.076      37.774
  C      -25.912      -5.860      39.921
  O      -24.714      -6.686      40.027
  C      -25.627      -4.566      40.700
  O      -26.014      -4.780      42.067
  C      -24.113      -4.476      40.606
  O      -23.604      -3.538      41.526
  C      -23.760      -5.945      40.819
  N      -18.796      -5.045      41.641
  C      -19.906      -4.590      42.260
  N      -21.194      -4.883      41.993
  C      -21.282      -5.763      40.980
  C      -20.240      -6.321      40.259
  C      -18.941      -5.924      40.622
  N      -17.808      -6.379      39.988
  N      -20.723      -7.181      39.289
  C      -22.033      -7.140      39.426
  N      -22.415      -6.292      40.428
  O      -26.660      -3.701      36.350
  O      -25.148      -2.478      38.021
  H      -23.836      -3.790      42.445
  H      -27.029      -2.803      36.258
  H      -19.737      -3.894      43.078
  H      -22.745      -7.692      38.825
  H      -23.891      -6.248      41.865
  H      -23.803      -4.140      39.612
  H      -26.156      -3.695      40.304
  H      -26.729      -6.429      40.376
  H      -26.467      -6.590      37.959
  H      -27.077      -4.957      38.342
  H      -16.915      -6.034      40.299
  H      -17.903      -7.022      39.216
  P      -27.425      -4.206      42.581
  C      -29.505      -4.081      41.000
  O      -28.598      -4.893      41.730
  O      -27.414      -2.716      41.986
  O      -27.615      -4.182      44.061
  H      -27.954      -2.135      42.553
  H      -30.215      -4.703      40.496
  H      -28.965      -3.501      40.281
  H      -30.019      -3.427      41.673

 6  7  8  9  10  11  12  13  14  15  25  28  32  33  34  35 0
 6-311+G(2d,p)
 ****
 36  37  40 0
 6-311+G(2d,p)
 ****
 1  2  3  4  5  16  17  18  19  20  21  22  23  24 0
 3-21G
 ****
 26  27  29  30  31  38  39 41  42  43  44  45  46  47  48 0
 3-21G
 ****


