%nproc=1
%NoSave
%Mem=1900MB
#P OB98/GEN NMR

erre ene a

0 1
  C      -88.279    -594.937     -40.393
  O      -88.475    -595.594     -39.161
  H      -87.205    -594.800     -40.550
  H      -88.758    -593.948     -40.374
  H      -88.690    -595.536     -41.215
  P      -89.973    -596.048     -38.804
  C      -89.289    -598.457     -37.998
  O      -89.873    -597.193     -37.689
  C      -88.658    -599.064     -36.751
  O      -87.341    -598.512     -36.507
  C      -89.416    -598.770     -35.470
  O      -90.643    -599.472     -35.382
  C      -88.379    -599.201     -34.431
  O      -88.361    -600.622     -34.270
  C      -87.074    -598.692     -35.085
  N      -86.580    -597.469     -34.476
  C      -86.008    -597.602     -33.196
  O      -85.939    -598.700     -32.665
  N      -85.569    -596.466     -32.554
  C      -85.651    -595.324     -33.134
  N      -85.203    -594.240     -32.438
  C      -86.212    -595.131     -34.494
  C      -86.665    -596.235     -35.086
  O      -90.411    -596.866     -40.112
  O      -90.899    -594.935     -38.432
  H      -87.818    -600.807     -33.481
  H      -89.785    -597.575     -40.355
  H      -86.256    -594.145     -34.937
  H      -87.091    -596.184     -36.080
  H      -86.290    -599.460     -35.005
  H      -88.593    -598.773     -33.445
  H      -89.585    -597.688     -35.366
  H      -88.552    -600.148     -36.913
  H      -84.828    -594.403     -31.497
  H      -88.544    -598.349     -38.797
  H      -85.237    -593.286     -32.772
  H      -90.093    -599.108     -38.377
  P      -91.962    -598.749     -34.815
  C      -93.661    -600.307     -35.966
  O      -93.085    -599.900     -34.742
  O      -92.377    -597.530     -35.548
  O      -91.612    -598.511     -33.265
  H      -91.421    -599.326     -32.761
  H      -94.387    -601.071     -35.782
  H      -92.897    -600.689     -36.610
  H      -94.135    -599.469     -36.433

 6  7  8  9  10  11  12  13  14  15  16  26  30  31  32  33  35 0
 6-311+G(2d,p)
 ****
 37  38 0
 6-311+G(2d,p)
 ****
 1  2  3  4  5  17  18  19  20  21  22  23  24  25 0
 3-21G
 ****
 27  28  29  34  36  39  40  41  42  43  44  45  46 0
 3-21G
 ****


