%nproc=1
%NoSave
%Mem=1900MB
#P OB98/GEN NMR

erre ene a

0 1
  C      439.403    -245.213     368.554
  O      438.777    -245.739     367.402
  H      439.516    -246.014     369.286
  H      438.783    -244.424     368.985
  H      440.394    -244.819     368.308
  P      438.699    -244.775     366.118
  C      440.708    -245.810     364.833
  O      440.191    -244.681     365.529
  C      441.353    -245.372     363.524
  O      440.338    -245.054     362.544
  C      442.234    -244.136     363.643
  O      443.539    -244.460     364.106
  C      442.267    -243.678     362.190
  O      443.176    -244.504     361.437
  C      440.821    -243.937     361.748
  N      437.303    -241.010     359.567
  C      438.003    -242.086     359.053
  N      437.742    -242.419     357.771
  N      438.889    -242.765     359.733
  C      439.061    -242.308     360.993
  C      438.425    -241.258     361.612
  C      437.439    -240.515     360.859
  O      436.771    -239.576     361.272
  N      438.852    -241.103     362.909
  C      439.764    -242.043     363.064
  N      439.931    -242.794     361.932
  O      438.466    -243.323     366.760
  O      437.634    -245.106     365.129
  H      444.078    -244.229     361.689
  H      437.880    -242.808     366.171
  H      436.638    -240.513     358.992
  H      440.322    -242.216     363.975
  H      440.758    -244.231     360.696
  H      442.609    -242.649     362.081
  H      437.104    -241.910     357.179
  H      441.762    -243.364     364.255
  H      438.219    -243.227     357.381
  H      441.926    -246.224     363.128
  H      439.886    -246.507     364.623
  H      441.443    -246.316     365.468
  P      444.472    -243.246     364.601
  C      443.521    -243.761     366.966
  O      443.842    -242.767     366.002
  O      444.087    -242.063     363.603
  O      445.934    -243.538     364.604
  H      444.819    -241.414     363.555
  H      443.114    -243.294     367.838
  H      444.406    -244.301     367.230
  H      442.801    -244.437     366.555

 6  7  8  9  10  11  12  13  14  15  26  29  33  34 0
 6-311+G(2d,p)
 ****
 36  38  39  40  41 0
 6-311+G(2d,p)
 ****
 1  2  3  4  5  16  17  18  19  20  21  22  23  24  25 0
 3-21G
 ****
 27  28  30  31  32  35  37  42  43  44  45  46  47 0
 3-21G
 ****
 48  49 0
 3-21G
 ****


