%nproc=1
%NoSave
%Mem=1900MB
#P OB98/GEN NMR

erre ene a

0 1
  C     -896.160     561.612    -896.870
  O     -896.220     562.487    -895.770
  P     -894.860     563.037    -895.090
  C     -895.310     565.380    -896.080
  O     -894.380     564.285    -895.980
  C     -894.760     566.576    -895.290
  O     -893.560     567.098    -895.900
  C     -895.700     567.771    -895.250
  O     -896.920     567.605    -894.550
  C     -894.770     568.867    -894.760
  O     -894.610     568.838    -893.340
  C     -893.440     568.504    -895.480
  N     -893.170     569.362    -896.630
  C     -892.990     570.719    -896.320
  O     -893.040     571.175    -895.190
  N     -892.780     571.550    -897.400
  C     -892.760     571.159    -898.700
  O     -892.590     571.972    -899.630
  C     -892.980     569.739    -898.970
  C     -893.170     568.916    -897.940
  O     -893.820     562.001    -894.850
  O     -895.400     563.756    -893.760
  H     -893.850     569.396    -893.120
  H     -896.020     564.488    -893.910
  H     -892.660     572.531    -897.200
  H     -892.960     569.394    -900.000
  H     -893.340     567.851    -898.100
  H     -892.600     568.558    -894.780
  H     -895.160     569.882    -895.010
  H     -895.990     568.008    -896.290
  H     -894.490     566.235    -894.270
  H     -896.260     565.081    -895.670
  H     -895.450     565.641    -897.140
  P     -898.340     568.155    -895.110
  C     -899.260     565.735    -895.440
  O     -899.000     567.001    -896.020
  O     -898.360     569.551    -895.640
  O     -899.250     568.076    -893.770
  H     -899.920     568.775    -893.820
  H     -899.660     565.062    -896.210
  H     -900.000     565.833    -894.630
  H     -898.330     565.296    -895.050
  H     -897.153     561.359    -897.179
  H     -895.636     560.722    -896.590
  H     -895.645     562.089    -897.678

 3  4  5  6  7  8  9  10  11  12  13  23  28  29  30  31  32 0
 6-311+G(2d,p)
 ****
 33  34 0
 6-311+G(2d,p)
 ****
 1  2  14  15  16  17  18  19  20  21  22  24  25  26  27 0
 3-21G
 ****
 35  36  37  38  39  40  41  42  43  44  45 0
 3-21G
 ****


