%nproc=1
%NoSave
%Mem=1900MB
#P OB98/GEN NMR

erre ene a

0 1
  C     -158.292     454.232      10.268
  O     -159.212     453.729       9.295
  P     -160.254     452.614       9.788
  C     -162.137     454.131      10.737
  O     -161.083     453.216      11.020
  C     -163.347     453.377      10.177
  O     -163.741     452.289      11.042
  C     -164.587     454.250      10.035
  O     -164.475     455.117       8.919
  C     -165.671     453.186       9.904
  O     -165.708     452.660       8.569
  C     -165.170     452.099      10.876
  N     -169.637     451.712      13.348
  C     -169.314     451.613      12.039
  N     -168.104     451.733      11.461
  C     -167.157     451.967      12.382
  C     -167.332     452.087      13.754
  C     -168.645     451.956      14.235
  N     -168.970     452.066      15.568
  N     -166.124     452.330      14.380
  C     -165.241     452.379      13.399
  N     -165.814     452.152      12.177
  O     -159.315     451.509      10.466
  O     -161.080     452.035       8.687
  H     -166.503     452.092       8.499
  H     -159.279     450.710       9.905
  H     -170.146     451.412      11.366
  H     -164.184     452.572      13.527
  H     -165.324     451.091      10.480
  H     -166.673     453.564      10.136
  H     -164.746     454.842      10.949
  H     -163.067     452.962       9.198
  H     -161.807     454.882      10.018
  H     -169.944     452.037      15.823
  H     -168.252     452.338      16.229
  H     -162.398     454.661      11.658
  P     -164.663     456.686       9.168
  C     -162.189     457.328       9.437
  O     -163.410     457.076      10.103
  O     -165.883     456.706      10.200
  O     -164.830     457.507       7.940
  H     -165.772     456.045      10.906
  H     -161.437     457.612      10.178
  H     -162.308     458.144       8.719
  H     -161.853     456.423       8.918
  H     -157.657     454.964       9.814
  H     -157.696     453.427      10.645
  H     -158.835     454.681      11.073

 3  4  5  6  7  8  9  10  11  12  22  25  29  30  31  32 0
 6-311+G(2d,p)
 ****
 33  36  37 0
 6-311+G(2d,p)
 ****
 1  2  13  14  15  16  17  18  19  20  21  23  24  26 0
 3-21G
 ****
 27  28  34  35  38  39  40  41  42  43  44  45  46  47  48 0
 3-21G
 ****


