%nproc=1
%NoSave
%Mem=1900MB
#P OB98/GEN NMR

erre ene a

0 1
  C     -108.661     113.409     -95.884
  O     -107.981     113.765     -94.699
  H     -109.451     114.143     -96.066
  H     -109.120     112.424     -95.775
  H     -107.980     113.410     -96.739
  P     -106.684     112.927     -94.270
  C     -107.991     111.355     -92.701
  O     -107.191     111.459     -93.873
  C     -107.873     109.951     -92.115
  O     -108.349     108.970     -93.063
  C     -106.444     109.541     -91.776
  O     -106.008     110.171     -90.588
  C     -106.601     108.031     -91.689
  O     -107.172     107.643     -90.429
  C     -107.595     107.757     -92.843
  N     -106.932     107.317     -94.071
  C     -106.815     105.942     -94.246
  O     -107.233     105.121     -93.433
  N     -106.157     105.539     -95.379
  C     -105.541     106.362     -96.277
  O     -104.780     105.957     -97.150
  C     -105.761     107.802     -96.080
  C     -106.423     108.208     -94.995
  O     -105.792     113.580     -93.268
  O     -105.923     112.677     -95.658
  H     -105.182     113.308     -95.736
  H     -107.332     106.681     -90.484
  H     -106.026     104.545     -95.492
  H     -105.343     108.485     -96.808
  H     -106.571     109.267     -94.814
  H     -108.317     106.983     -92.550
  H     -105.648     107.508     -91.783
  H     -105.776     109.780     -92.611
  H     -108.514     109.898     -91.225
  H     -109.034     111.550     -92.973
  H     -107.666     112.108     -91.977
  P     -104.517     110.735     -90.449
  C     -103.564     108.489     -89.666
  O     -103.504     109.511     -90.651
  O     -104.261     111.555     -89.229
  O     -104.299     111.605     -91.777
  H     -104.000     112.500     -91.526
  H     -102.850     107.727     -89.899
  H     -104.546     108.065     -89.652
  H     -103.341     108.906     -88.706

 6  7  8  9  10  11  12  13  14  15  16  27  31  32  33  34  35 0
 6-311+G(2d,p)
 ****
 36  37 0
 6-311+G(2d,p)
 ****
 1  2  3  4  5  17  18  19  20  21  22  23  24  25 0
 3-21G
 ****
 26  28  29  30  38  39  40  41  42  43  44  45 0
 3-21G
 ****


