%nproc=1
%NoSave
%Mem=1900MB
#P OB98/GEN NMR

erre ene a

0 1
  C      288.271    -312.274      45.829
  O      289.413    -311.505      46.151
  H      287.647    -311.705      45.136
  H      287.696    -312.476      46.737
  H      288.557    -313.216      45.352
  P      290.618    -312.271      46.885
  C      291.351    -313.228      44.587
  O      291.016    -313.505      45.938
  C      292.292    -314.297      44.044
  O      292.363    -314.225      42.604
  C      293.728    -314.187      44.549
  O      293.883    -314.799      45.824
  C      294.466    -314.969      43.476
  O      294.283    -316.385      43.695
  C      293.726    -314.536      42.202
  N      295.948    -312.833      37.971
  C      295.556    -314.116      38.312
  N      295.801    -315.082      37.402
  N      294.985    -314.424      39.448
  C      294.824    -313.363      40.272
  C      295.176    -312.048      40.049
  C      295.791    -311.719      38.784
  O      296.146    -310.596      38.429
  N      294.857    -311.253      41.118
  C      294.337    -312.088      41.995
  N      294.295    -313.379      41.533
  O      289.888    -312.966      48.131
  O      291.745    -311.402      47.331
  H      294.741    -316.607      44.528
  H      290.078    -312.447      48.936
  H      296.392    -312.652      37.089
  H      293.967    -311.806      42.973
  H      293.675    -315.339      41.459
  H      295.541    -314.785      43.485
  H      296.256    -314.916      36.518
  H      294.077    -313.147      44.553
  H      295.520    -316.027      37.629
  H      291.868    -315.279      44.300
  H      291.841    -312.251      44.533
  H      290.432    -313.203      43.990
  P      295.332    -314.766      46.510
  C      294.938    -312.333      47.318
  O      295.776    -313.225      46.594
  O      296.275    -315.365      45.363
  O      295.456    -315.541      47.777
  H      296.612    -316.243      45.633
  H      295.356    -311.348      47.289
  H      294.864    -312.659      48.334
  H      293.964    -312.320      46.875

 6  7  8  9  10  11  12  13  14  15  26  29  33  34 0
 6-311+G(2d,p)
 ****
 36  38  39  40  41 0
 6-311+G(2d,p)
 ****
 1  2  3  4  5  16  17  18  19  20  21  22  23  24  25 0
 3-21G
 ****
 27  28  30  31  32  35  37  42  43  44  45  46  47 0
 3-21G
 ****
 48  49 0
 3-21G
 ****


