%nproc=1
%NoSave
%Mem=1900MB
#P OB98/GEN NMR

erre ene a

0 1
  C      293.889    -896.910      78.853
  O      294.004    -897.140      77.470
  H      293.500    -895.900      79.007
  H      294.867    -896.980      79.340
  H      293.189    -897.620      79.312
  P      294.404    -898.620      76.972
  C      296.904    -898.730      77.579
  O      295.948    -898.570      76.534
  C      298.292    -898.370      77.053
  O      298.746    -899.350      76.107
  C      298.347    -897.040      76.315
  O      298.291    -895.930      77.208
  C      299.650    -897.180      75.545
  O      300.768    -896.870      76.380
  C      299.639    -898.680      75.193
  N      299.236    -898.920      73.798
  C      300.215    -899.450      72.962
  O      301.341    -899.750      73.329
  N      299.850    -899.600      71.642
  C      298.694    -899.140      71.066
  O      298.525    -899.050      69.867
  C      297.683    -898.610      72.025
  C      298.008    -898.530      73.310
  O      293.477    -899.220      75.960
  O      294.436    -899.480      78.327
  H      293.616    -900.000      78.394
  H      301.563    -897.180      75.890
  H      300.566    -899.950      71.027
  H      296.721    -898.310      71.619
  H      297.292    -898.130      74.023
  H      300.632    -899.120      75.348
  H      299.674    -896.520      74.676
  H      297.519    -896.970      75.598
  H      298.995    -898.370      77.908
  H      296.899    -899.780      77.904
  H      296.621    -898.090      78.435
  P      297.445    -894.630      76.846
  C      298.748    -894.230      74.663
  O      298.360    -893.690      75.907
  O      296.803    -893.940      77.986
  O      296.340    -895.170      75.805
  H      295.458    -894.850      76.089
  H      299.347    -893.517      74.136
  H      297.876    -894.459      74.086
  H      299.315    -895.123      74.823

 6  7  8  9  10  11  12  13  14  15  16  27  31  32  33  34  35 0
 6-311+G(2d,p)
 ****
 36  37 0
 6-311+G(2d,p)
 ****
 1  2  3  4  5  17  18  19  20  21  22  23  24  25 0
 3-21G
 ****
 26  28  29  30  38  39  40  41  42  43  44  45 0
 3-21G
 ****


