%nproc=1
%NoSave
%Mem=1900MB
#P OB98/GEN NMR

erre ene a

0 1
  C      259.273      85.385     307.892
  O      259.552      86.079     309.115
  P      259.419      87.672     309.244
  C      257.482      88.026     310.926
  O      258.896      88.034     310.717
  C      257.130      88.125     312.417
  O      257.275      86.847     313.068
  C      257.991      89.095     313.213
  O      257.609      90.446     312.949
  C      257.715      88.627     314.635
  O      256.474      89.175     315.138
  C      257.583      87.100     314.446
  N      258.804      86.380     314.847
  C      259.175      86.503     316.190
  O      258.520      87.209     316.962
  N      260.289      85.817     316.622
  C      261.014      85.148     315.779
  N      262.100      84.486     316.259
  C      260.703      85.088     314.335
  C      259.588      85.723     313.947
  O      258.646      88.325     308.155
  O      260.940      88.207     309.261
  H      255.771      88.824     314.547
  H      260.971      89.096     308.864
  H      261.347      84.535     313.649
  H      259.302      85.722     312.896
  H      256.743      86.699     315.026
  H      258.506      88.922     315.342
  H      259.039      88.944     312.984
  H      256.058      88.415     312.483
  H      262.273      84.543     317.259
  H      257.089      87.076     310.522
  H      262.714      83.942     315.688
  H      257.041      88.863     310.372
  P      258.584      91.636     313.401
  C      259.241      92.213     310.997
  O      258.660      92.690     312.200
  O      259.894      91.235     313.997
  O      257.702      92.429     314.510
  H      258.301      92.817     315.169
  H      258.889      92.843     310.172
  H      258.974      91.170     310.802
  H      260.337      92.307     311.069
  H      259.426      84.336     308.034
  H      259.927      85.740     307.123
  H      258.257      85.561     307.606

 3  4  5  6  7  8  9  10  11  12  13  23  27  28  29  30  32 0
 6-311+G(2d,p)
 ****
 34  35 0
 6-311+G(2d,p)
 ****
 1  2  14  15  16  17  18  19  20  21  22  24  25  26 0
 3-21G
 ****
 31  33  36  37  38  39  40  41  42  43  44  45  46 0
 3-21G
 ****


