%nproc=1
%NoSave
%Mem=1900MB
#P OB98/GEN NMR

erre ene a

0 1
  C      615.946     -26.767     -87.065
  O      614.957     -25.777     -87.260
  H      615.535     -27.607     -86.500
  H      616.275     -27.135     -88.045
  H      616.810     -26.346     -86.539
  P      614.345     -25.095     -85.943
  C      611.968     -25.918     -86.593
  O      613.000     -25.910     -85.618
  C      610.967     -27.021     -86.266
  O      611.544     -28.319     -86.546
  C      610.531     -27.066     -84.809
  O      609.519     -26.119     -84.522
  C      609.993     -28.488     -84.721
  O      608.689     -28.550     -85.325
  C      611.013     -29.263     -85.567
  N      612.684     -33.381     -83.042
  C      611.529     -33.127     -83.691
  N      611.158     -32.002     -84.337
  C      612.130     -31.076     -84.265
  C      613.351     -31.185     -83.634
  C      613.633     -32.413     -83.000
  N      614.805     -32.667     -82.324
  N      614.071     -30.006     -83.748
  C      613.301     -29.215     -84.466
  N      612.110     -29.814     -84.797
  O      613.798     -23.684     -86.471
  O      615.286     -24.950     -84.790
  H      608.737     -28.036     -86.152
  H      613.701     -23.066     -85.720
  H      610.805     -33.940     -83.689
  H      613.557     -28.214     -84.770
  H      610.558     -30.084     -86.124
  H      609.889     -28.841     -83.693
  H      611.386     -26.964     -84.125
  H      610.097     -26.899     -86.934
  H      612.405     -26.102     -87.577
  H      614.825     -33.495     -81.751
  H      615.444     -31.897     -82.164
  H      611.466     -24.938     -86.601
  P      608.984     -26.040     -83.007
  C      606.649     -26.698     -83.951
  O      607.650     -26.934     -82.965
  O      608.439     -24.545     -82.889
  O      610.013     -26.360     -81.967
  H      608.472     -24.234     -81.965
  H      605.828     -27.366     -83.793
  H      607.061     -26.864     -84.924
  H      606.306     -25.687     -83.876

 6  7  8  9  10  11  12  13  14  15  25  28  32  33  34  35 0
 6-311+G(2d,p)
 ****
 36  39  40 0
 6-311+G(2d,p)
 ****
 1  2  3  4  5  16  17  18  19  20  21  22  23  24 0
 3-21G
 ****
 26  27  29  30  31  37  38  41  42  43  44  45  46  47 0
 3-21G
 ****
 48 0
 3-21G
 ****


