%nproc=1
%NoSave
%Mem=1900MB
#P OB98/GEN NMR

erre ene a

0 1
  C      138.138     -90.750     -19.835
  O      137.568     -91.026     -21.120
  P      138.114     -90.365     -22.475
  C      137.861     -92.441     -23.985
  O      137.447     -91.102     -23.731
  C      136.677     -93.338     -24.360
  O      135.878     -93.634     -23.199
  C      135.714     -92.734     -25.373
  O      136.253     -92.776     -26.681
  C      134.481     -93.607     -25.161
  O      134.593     -94.844     -25.884
  C      134.525     -93.856     -23.640
  N      133.581     -93.020     -22.910
  C      132.270     -93.497     -22.811
  O      131.943     -94.543     -23.372
  N      131.355     -92.760     -22.098
  C      131.700     -91.616     -21.596
  N      130.755     -90.935     -20.894
  C      133.046     -91.035     -21.755
  C      133.926     -91.785     -22.415
  O      139.605     -90.270     -22.547
  O      137.463     -88.901     -22.515
  H      135.337     -95.333     -25.482
  H      138.071     -88.294     -22.976
  H      133.284     -90.066     -21.345
  H      134.941     -91.438     -22.569
  H      134.304     -94.907     -23.418
  H      133.560     -93.121     -25.496
  H      135.479     -91.701     -25.091
  H      137.084     -94.286     -24.738
  H      129.844     -91.364     -20.797
  H      138.336     -92.830     -23.077
  H      130.919     -90.038     -20.461
  H      138.602     -92.433     -24.792
  P      135.916     -91.605     -27.719
  C      138.374     -91.594     -28.455
  O      137.023     -91.647     -28.874
  O      135.674     -90.259     -27.119
  O      134.603     -92.136     -28.473
  H      134.055     -91.372     -28.727
  H      139.002     -92.024     -29.240
  H      138.523     -92.160     -27.531
  H      138.664     -90.553     -28.297
  H      137.611     -91.302     -19.085
  H      138.060     -89.703     -19.628
  H      139.168     -91.038     -19.832

 3  4  5  6  7  8  9  10  11  12  13  23  27  28  29  30  32 0
 6-311+G(2d,p)
 ****
 34  35 0
 6-311+G(2d,p)
 ****
 1  2  14  15  16  17  18  19  20  21  22  24  25  26 0
 3-21G
 ****
 31  33  36  37  38  39  40  41  42  43  44  45  46 0
 3-21G
 ****


