%nproc=1
%NoSave
%Mem=1900MB
#P OB98/GEN NMR

erre ene a

0 1
  C     -138.814       0.547    -104.702
  O     -138.868       1.953    -104.552
  H     -139.442       0.086    -103.938
  H     -137.784       0.205    -104.561
  H     -139.175       0.246    -105.690
  P     -138.272       2.840    -105.746
  C     -139.931       3.050    -107.728
  O     -139.517       3.558    -106.468
  C     -141.118       3.856    -108.263
  O     -142.224       3.731    -107.327
  C     -140.824       5.354    -108.437
  O     -141.478       5.817    -109.623
  C     -141.469       5.985    -107.216
  O     -141.822       7.353    -107.427
  C     -142.662       5.060    -106.992
  N     -143.794       8.197    -103.210
  C     -143.438       8.469    -104.519
  N     -143.365       9.772    -104.872
  N     -143.176       7.539    -105.404
  C     -143.322       6.281    -104.917
  C     -143.662       5.885    -103.644
  C     -143.924       6.923    -102.667
  O     -144.217       6.748    -101.488
  N     -143.675       4.516    -103.535
  C     -143.340       4.088    -104.739
  N     -143.125       5.119    -105.613
  O     -137.800       1.742    -106.815
  O     -137.150       3.752    -105.370
  H     -141.091       7.770    -107.936
  H     -136.831       1.778    -106.920
  H     -143.969       8.952    -102.566
  H     -143.233       3.050    -105.028
  H     -143.515       5.314    -107.632
  H     -140.774       5.941    -106.367
  H     -143.601      10.534    -104.258
  H     -139.756       5.576    -108.502
  H     -143.143       9.991    -105.841
  H     -141.449       3.407    -109.208
  H     -140.224       2.002    -107.609
  H     -139.096       3.109    -108.436
  P     -140.586       6.636    -110.676
  C     -140.209       4.617    -112.256
  O     -140.725       5.933    -112.115
  O     -139.088       6.289    -110.229
  O     -140.834       8.113    -110.660
  H     -138.679       7.070    -109.807
  H     -140.369       4.277    -113.258
  H     -140.709       3.963    -111.573
  H     -139.160       4.620    -112.044

 6  7  8  9  10  11  12  13  14  15  26  29  33  34 0
 6-311+G(2d,p)
 ****
 36  38  39  40  41 0
 6-311+G(2d,p)
 ****
 1  2  3  4  5  16  17  18  19  20  21  22  23  24  25 0
 3-21G
 ****
 27  28  30  31  32  35  37  42  43  44  45  46  47 0
 3-21G
 ****
 48  49 0
 3-21G
 ****


