%nproc=1
%NoSave
%Mem=1900MB
#P OB98/GEN NMR

erre ene a

0 1
  C      374.817    -665.383     298.724
  O      376.111    -665.383     298.150
  P      376.709    -663.977     297.640
  C      375.921    -662.203     295.910
  O      375.820    -663.543     296.379
  C      375.085    -662.027     294.645
  O      373.678    -662.153     294.939
  C      375.229    -660.657     293.983
  O      376.403    -660.573     293.181
  C      373.995    -660.624     293.112
  O      374.203    -661.385     291.906
  C      372.951    -661.315     294.008
  N      368.981    -658.193     293.679
  C      369.434    -659.143     292.786
  N      368.769    -659.231     291.607
  N      370.443    -659.933     293.010
  C      371.024    -659.733     294.228
  C      370.658    -658.829     295.200
  C      369.549    -657.946     294.919
  O      369.133    -657.050     295.653
  N      371.475    -658.918     296.300
  C      372.329    -659.880     295.994
  N      372.120    -660.378     294.732
  O      378.111    -664.385     296.992
  O      376.859    -662.952     298.713
  H      373.366    -661.345     291.401
  H      378.679    -663.595     296.898
  H      368.198    -657.597     293.448
  H      373.114    -660.234     296.645
  H      372.289    -661.974     293.422
  H      373.717    -659.605     292.808
  H      368.022    -658.605     291.344
  H      375.186    -659.851     294.727
  H      369.121    -659.876     290.903
  H      375.353    -662.828     293.942
  H      376.962    -661.968     295.699
  H      375.574    -661.524     296.696
  P      376.887    -659.103     292.779
  C      375.483    -657.068     291.952
  O      375.692    -658.475     291.924
  O      378.035    -659.385     291.691
  O      377.385    -658.276     293.922
  H      378.671    -658.648     291.669
  H      374.826    -656.790     291.127
  H      376.429    -656.532     291.835
  H      375.018    -656.788     292.900
  H      374.555    -666.379     299.014
  H      374.109    -665.022     298.007
  H      374.809    -664.748     299.585

 3  4  5  6  7  8  9  10  11  12  23  26  30  31 0
 6-311+G(2d,p)
 ****
 33  35  36  37  38 0
 6-311+G(2d,p)
 ****
 1  2  13  14  15  16  17  18  19  20  21  22  24  25 0
 3-21G
 ****
 27  28  29  32  34  39  40  41  42  43  44  45  46  47  48  49 0
 3-21G
 ****


