%nproc=1
%NoSave
%Mem=1900MB
#P OB98/GEN NMR

erre ene a

0 1
  C     -387.976    1123.263     142.721
  O     -388.190    1122.956     144.099
  P     -389.396    1121.966     144.505
  C     -387.889    1120.360     145.833
  O     -388.790    1120.496     144.744
  C     -387.499    1118.902     146.089
  O     -388.696    1118.100     146.352
  C     -386.742    1118.222     144.951
  O     -385.790    1117.329     145.541
  C     -387.831    1117.463     144.238
  O     -387.322    1116.431     143.409
  C     -388.667    1116.987     145.446
  N     -390.016    1116.575     145.065
  C     -390.226    1115.212     144.844
  O     -389.272    1114.433     144.873
  N     -391.512    1114.780     144.591
  C     -392.452    1115.656     144.394
  N     -393.701    1115.194     144.155
  C     -392.218    1117.115     144.433
  C     -390.995    1117.500     144.797
  O     -390.583    1122.029     143.606
  O     -389.766    1122.444     145.988
  H     -386.605    1115.958     143.898
  H     -390.723    1122.347     146.117
  H     -393.008    1117.810     144.194
  H     -390.733    1118.544     144.869
  H     -388.175    1116.159     145.952
  H     -388.427    1118.139     143.606
  H     -386.203    1118.934     144.305
  H     -386.897    1118.870     147.014
  H     -393.838    1114.192     144.102
  H     -388.346    1120.788     146.729
  H     -394.504    1115.808     144.044
  H     -386.986    1120.973     145.630
  P     -384.419    1117.914     146.096
  C     -384.823    1117.317     148.591
  O     -384.626    1118.331     147.630
  O     -384.353    1119.351     145.366
  O     -383.179    1117.133     145.767
  H     -383.425    1119.618     145.295
  H     -384.678    1117.747     149.593
  H     -384.118    1116.492     148.451
  H     -385.850    1116.943     148.534
  H     -387.143    1123.928     142.629
  H     -388.851    1123.730     142.320
  H     -387.774    1122.361     142.182

 3  4  5  6  7  8  9  10  11  12  13  23  27  28  29  30  32 0
 6-311+G(2d,p)
 ****
 34  35 0
 6-311+G(2d,p)
 ****
 1  2  14  15  16  17  18  19  20  21  22  24  25  26 0
 3-21G
 ****
 31  33  36  37  38  39  40  41  42  43  44  45  46 0
 3-21G
 ****


