%nproc=1
%NoSave
%Mem=1900MB
#P OB98/GEN NMR

erre ene a

0 1
  C      198.029    -862.007    -447.014
  O      198.030    -860.580    -447.185
  P      196.738    -859.906    -447.859
  C      197.919    -858.793    -449.902
  O      197.216    -858.611    -448.670
  C      197.255    -857.990    -451.024
  O      196.024    -858.583    -451.462
  C      196.898    -856.562    -450.633
  O      198.020    -855.700    -450.724
  C      195.876    -856.207    -451.693
  O      196.544    -855.848    -452.923
  C      195.116    -857.536    -451.865
  N      190.189    -856.185    -451.592
  C      191.146    -855.910    -452.506
  N      192.442    -856.285    -452.504
  C      192.707    -857.045    -451.418
  C      191.830    -857.410    -450.409
  C      190.511    -856.948    -450.526
  N      189.529    -857.243    -449.597
  N      192.464    -858.192    -449.476
  C      193.703    -858.308    -449.911
  N      193.895    -857.626    -451.083
  O      195.968    -859.278    -446.605
  O      195.884    -860.871    -448.612
  H      197.008    -855.013    -452.762
  H      194.995    -859.336    -446.755
  H      190.837    -855.289    -453.344
  H      194.494    -858.859    -449.421
  H      194.851    -857.721    -452.911
  H      195.249    -855.356    -451.410
  H      196.439    -856.529    -449.637
  H      197.940    -857.971    -451.880
  H      197.954    -859.846    -450.163
  H      188.595    -856.889    -449.761
  H      189.766    -857.831    -448.814
  H      198.965    -858.483    -449.760
  P      198.957    -855.568    -449.420
  C      197.594    -853.427    -448.813
  O      198.877    -854.019    -448.995
  O      200.431    -855.725    -450.014
  O      198.661    -856.559    -448.345
  H      201.026    -856.121    -449.339
  H      197.719    -852.507    -448.229
  H      196.937    -854.094    -448.238
  H      197.153    -853.186    -449.771
  H      198.947    -862.312    -446.556
  H      197.932    -862.481    -447.969
  H      197.207    -862.291    -446.390

 3  4  5  6  7  8  9  10  11  12  22  25  29  30  31  32 0
 6-311+G(2d,p)
 ****
 33  36  37 0
 6-311+G(2d,p)
 ****
 1  2  13  14  15  16  17  18  19  20  21  23  24  26 0
 3-21G
 ****
 27  28  34  35  38  39  40  41  42  43  44  45  46  47  48 0
 3-21G
 ****


