%nproc=1
%NoSave
%Mem=1900MB
#P OB98/GEN NMR

erre ene a

0 1
  C     -167.621       0.426     292.339
  O     -168.100      -0.729     291.687
  H     -166.601       0.237     292.681
  H     -168.248       0.641     293.209
  H     -167.612       1.290     291.670
  P     -169.356      -0.594     290.707
  C     -170.977      -1.887     292.243
  O     -170.693      -0.653     291.595
  C     -172.451      -2.269     292.107
  O     -173.273      -1.276     292.758
  C     -172.909      -2.333     290.647
  O     -172.693      -3.585     290.018
  C     -174.401      -2.033     290.772
  O     -175.158      -3.233     290.997
  C     -174.476      -1.114     291.995
  N     -177.245       2.355     289.457
  C     -177.309       0.976     289.387
  N     -178.196       0.469     288.504
  N     -176.558       0.184     290.107
  C     -175.652       0.837     290.870
  C     -175.482       2.197     291.004
  C     -176.366       3.067     290.260
  O     -176.362       4.293     290.299
  N     -174.431       2.492     291.840
  C     -173.917       1.316     292.135
  N     -174.671       0.280     291.636
  O     -169.386      -2.006     289.944
  O     -169.288       0.535     289.722
  H     -174.910      -3.588     291.873
  H     -169.739      -1.883     289.045
  H     -177.868       2.912     288.901
  H     -173.033       1.154     292.741
  H     -175.310      -1.391     292.651
  H     -174.786      -1.586     289.851
  H     -178.736       1.030     287.867
  H     -172.449      -1.532     290.062
  H     -178.141      -0.529     288.286
  H     -172.628      -3.220     292.624
  H     -170.722      -1.752     293.294
  H     -170.338      -2.680     291.848
  P     -172.023      -3.669     288.570
  C     -174.251      -3.807     287.189
  O     -173.065      -3.110     287.499
  O     -171.998      -5.241     288.275
  O     -170.667      -3.056     288.452
  H     -171.116      -5.614     288.467
  H     -174.803      -3.262     286.452
  H     -174.844      -3.912     288.073
  H     -174.006      -4.776     286.807

 6  7  8  9  10  11  12  13  14  15  26  29  33  34 0
 6-311+G(2d,p)
 ****
 36  38  39  40  41 0
 6-311+G(2d,p)
 ****
 1  2  3  4  5  16  17  18  19  20  21  22  23  24  25 0
 3-21G
 ****
 27  28  30  31  32  35  37  42  43  44  45  46  47 0
 3-21G
 ****
 48  49 0
 3-21G
 ****


