%nproc=1
%NoSave
%Mem=1900MB
#P OB98/GEN NMR

erre ene a

0 1
  C      146.630     117.910    -304.624
  O      147.865     117.957    -305.314
  H      146.600     118.731    -303.905
  H      146.529     116.965    -304.084
  H      145.797     118.029    -305.326
  P      148.154     116.846    -306.430
  C      149.094     115.200    -304.673
  O      148.104     115.433    -305.668
  C      148.959     113.781    -304.126
  O      147.737     113.646    -303.375
  C      148.928     112.702    -305.206
  O      150.243     112.401    -305.644
  C      148.277     111.564    -304.438
  O      149.243     110.956    -303.557
  C      147.211     112.313    -303.622
  N      143.086     109.846    -305.245
  C      144.240     109.357    -304.661
  N      144.325     108.016    -304.534
  N      145.231     110.115    -304.260
  C      145.034     111.427    -304.521
  C      143.944     112.029    -305.109
  C      142.831     111.187    -305.496
  O      141.786     111.582    -306.001
  N      144.138     113.380    -305.264
  C      145.329     113.599    -304.739
  N      145.921     112.443    -304.284
  O      149.388     117.041    -307.260
  O      146.825     116.833    -307.321
  H      149.604     111.672    -303.001
  H      146.906     117.434    -308.082
  H      142.371     109.211    -305.549
  H      145.800     114.569    -304.656
  H      147.025     111.844    -302.647
  H      147.890     110.776    -305.083
  H      143.737     107.390    -305.069
  H      148.274     112.978    -306.039
  H      145.181     107.636    -304.153
  H      149.790     113.611    -303.427
  H      148.939     115.935    -303.875
  H      150.095     115.338    -305.092
  P      150.571     112.193    -307.203
  C      150.801     109.633    -306.964
  O      150.070     110.708    -307.539
  O      151.981     112.479    -307.590
  O      149.493     113.100    -307.962
  H      149.792     114.034    -308.101
  H      150.365     108.704    -307.266
  H      150.771     109.711    -305.897
  H      151.817     109.675    -307.296

 6  7  8  9  10  11  12  13  14  15  26  29  33  34 0
 6-311+G(2d,p)
 ****
 36  38  39  40  41 0
 6-311+G(2d,p)
 ****
 1  2  3  4  5  16  17  18  19  20  21  22  23  24  25 0
 3-21G
 ****
 27  28  30  31  32  35  37  42  43  44  45  46  47 0
 3-21G
 ****
 48  49 0
 3-21G
 ****


