%nproc=1
%NoSave
%Mem=1900MB
#P OB98/GEN NMR

erre ene a

0 1
  C      225.653     143.106     301.977
  O      226.952     142.591     302.261
  P      227.478     142.701     303.771
  C      227.833     140.117     304.032
  O      227.202     141.297     304.490
  C      227.240     138.872     304.718
  O      227.479     138.978     306.145
  C      225.734     138.701     304.572
  O      225.393     137.345     304.866
  C      225.212     139.603     305.671
  O      223.858     139.303     306.004
  C      226.245     139.377     306.796
  N      226.480     140.575     307.634
  C      225.542     140.892     308.612
  O      224.525     140.238     308.827
  N      225.786     142.030     309.333
  C      226.874     142.844     309.202
  O      226.998     143.898     309.812
  C      227.896     142.387     308.256
  C      227.656     141.300     307.521
  O      226.443     143.707     304.458
  O      228.887     143.185     303.882
  H      223.590     139.947     306.694
  H      226.855     144.582     304.585
  H      225.083     142.310     310.000
  H      228.806     142.970     308.172
  H      228.396     140.960     306.800
  H      225.929     138.569     307.470
  H      225.242     140.643     305.338
  H      225.337     138.983     303.589
  H      227.767     137.979     304.359
  H      228.908     140.176     304.214
  H      227.704     140.029     302.946
  P      225.413     136.287     303.660
  C      226.764     134.793     305.258
  O      226.647     135.303     303.944
  O      225.340     136.860     302.286
  O      224.143     135.358     303.982
  H      223.877     134.876     303.179
  H      227.244     133.814     305.216
  H      225.785     134.690     305.735
  H      227.383     135.472     305.851
  H      225.433     142.967     300.939
  H      225.624     144.150     302.211
  H      224.927     142.588     302.568

 3  4  5  6  7  8  9  10  11  12  13  23  28  29  30  31  32 0
 6-311+G(2d,p)
 ****
 33  34 0
 6-311+G(2d,p)
 ****
 1  2  14  15  16  17  18  19  20  21  22  24  25  26  27 0
 3-21G
 ****
 35  36  37  38  39  40  41  42  43  44  45 0
 3-21G
 ****


