%nproc=1
%NoSave
%Mem=1900MB
#P OB98/GEN NMR

erre ene a

0 1
  C       28.149      30.672    -165.065
  O       28.471      29.760    -166.106
  P       27.534      29.752    -167.408
  C       25.251      28.683    -167.986
  O       26.129      29.119    -166.957
  C       23.853      28.428    -167.435
  O       23.427      29.591    -166.674
  C       22.785      28.168    -168.513
  O       21.949      27.079    -168.098
  C       21.942      29.431    -168.488
  O       20.615      29.199    -168.951
  C       22.043      29.805    -167.009
  N       18.871      32.602    -164.243
  C       19.197      31.263    -164.129
  N       18.536      30.563    -163.179
  N       20.082      30.664    -164.880
  C       20.685      31.496    -165.766
  C       20.456      32.838    -165.966
  C       19.428      33.474    -165.169
  O       19.032      34.633    -165.282
  N       21.274      33.344    -166.946
  C       21.995      32.309    -167.339
  N       21.640      31.154    -166.686
  O       28.197      28.609    -168.312
  O       27.456      31.046    -168.143
  H       20.689      28.782    -169.830
  H       28.427      28.975    -169.190
  H       18.168      33.008    -163.650
  H       22.756      32.341    -168.109
  H       21.432      29.121    -166.400
  H       22.409      30.190    -169.129
  H       17.871      30.969    -162.542
  H       23.193      27.961    -169.508
  H       18.778      29.586    -163.066
  H       23.901      27.586    -166.731
  H       25.640      27.755    -168.420
  H       25.215      29.449    -168.767
  P       21.687      25.936    -169.196
  C       20.171      25.774    -171.313
  O       20.643      26.565    -170.238
  O       20.820      24.849    -168.399
  O       22.933      25.360    -169.781
  H       20.922      23.969    -168.806
  H       20.468      24.723    -171.211
  H       20.576      26.167    -172.247
  H       19.079      25.831    -171.342
  H       28.854      30.566    -164.267
  H       27.165      30.464    -164.701
  H       28.186      31.672    -165.443

 3  4  5  6  7  8  9  10  11  12  23  26  30  31  33  0
 6-311+G(2d,p)
 ****
 35  36  37  38 0
 6-311+G(2d,p)
 ****
 1  2  13  14  15  16  17  18  19  20  21  22  24  25  27  28  29 0
 3-21G
 ****
 32  34  39  40  41  42  43  44  45  46  47  48  49 0
 3-21G
 ****


