%nproc=1
%NoSave
%Mem=1900MB
#P OB98/GEN NMR

erre ene a

0 1
  C      466.317     551.779     332.036
  O      466.637     553.024     332.625
  P      465.592     553.733     333.607
  C      465.584     555.808     332.076
  O      465.738     555.321     333.411
  C      465.834     557.313     332.032
  O      464.879     558.008     332.857
  C      467.207     557.734     332.553
  O      468.209     557.457     331.593
  C      466.977     559.211     332.837
  O      467.092     559.979     331.626
  C      465.524     559.213     333.337
  N      464.953     562.369     337.303
  C      465.169     562.600     335.988
  N      465.351     561.704     334.994
  C      465.315     560.450     335.485
  C      465.138     560.063     336.804
  C      464.928     561.083     337.743
  N      464.645     560.863     339.074
  N      465.195     558.679     336.906
  C      465.409     558.255     335.680
  N      465.420     559.285     334.775
  O      465.623     553.268     335.022
  O      464.172     553.418     332.937
  H      466.547     559.542     330.946
  H      463.624     552.914     333.571
  H      465.189     563.651     335.696
  H      465.545     557.220     335.393
  H      464.955     560.055     332.927
  H      467.689     559.617     333.551
  H      467.423     557.215     333.494
  H      465.692     557.652     330.995
  H      464.565     555.591     331.752
  H      464.364     561.658     339.620
  H      464.326     559.936     339.340
  H      466.285     555.287     331.417
  P      469.237     556.254     331.837
  C      470.960     557.696     330.591
  O      470.404     556.403     330.744
  O      468.627     554.896     331.932
  O      469.982     556.664     333.199
  H      470.221     555.851     333.685
  H      470.280     558.319     330.004
  H      471.909     557.608     330.066
  H      471.134     558.159     331.563
  H      467.127     551.460     331.415
  H      465.432     551.882     331.443
  H      466.149     551.054     332.804

 3  4  5  6  7  8  9  10  11  12  22  25  29  30  31  32 0
 6-311+G(2d,p)
 ****
 33  36  37 0
 6-311+G(2d,p)
 ****
 1  2  13  14  15  16  17  18  19  20  21  23  24  26 0
 3-21G
 ****
 27  28  34  35  38  39  40  41  42  43  44  45  46  47  48 0
 3-21G
 ****


