%nproc=1
%NoSave
%Mem=1900MB
#P OB98/GEN NMR

erre ene a

0 1
  C      187.705     110.839    -318.196
  O      187.198     109.625    -318.716
  H      187.522     110.861    -317.118
  H      187.203     111.693    -318.656
  H      188.786     110.903    -318.364
  P      187.284     109.367    -320.295
  C      188.471     107.488    -321.615
  O      187.650     107.814    -320.493
  C      188.595     105.964    -321.750
  O      189.494     105.502    -320.711
  C      187.247     105.244    -321.578
  O      186.942     104.356    -322.658
  C      187.343     104.646    -320.177
  O      186.551     103.494    -319.974
  C      188.852     104.423    -320.003
  N      189.287     104.392    -318.607
  C      190.007     103.275    -318.186
  O      190.328     102.325    -318.903
  N      190.381     103.275    -316.864
  C      190.104     104.247    -315.949
  O      190.469     104.193    -314.778
  C      189.322     105.391    -316.446
  C      188.952     105.409    -317.732
  O      188.142     110.318    -321.060
  O      185.756     109.435    -320.779
  H      186.555     103.296    -319.011
  H      185.588     110.297    -321.208
  H      190.911     102.479    -316.551
  H      189.075     106.177    -315.745
  H      188.374     106.240    -318.134
  H      189.156     103.483    -320.467
  H      187.008     105.403    -319.460
  H      186.415     105.960    -321.603
  H      189.058     105.733    -322.718
  H      189.452     107.940    -321.457
  H      188.028     107.906    -322.527
  P      185.760     104.576    -323.710
  C      185.896     105.731    -326.064
  O      186.413     104.763    -325.161
  O      184.711     105.554    -323.307
  O      185.069     103.118    -323.797
  H      184.115     103.273    -323.963
  H      186.459     105.707    -326.974
  H      185.970     106.704    -325.625
  H      184.870     105.511    -326.273

 6  7  8  9  10  11  12  13  14  15  16  26  31  32  33  34  35 0
 6-311+G(2d,p)
 ****
 36  37 0
 6-311+G(2d,p)
 ****
 1  2  3  4  5  17  18  19  20  21  22  23  24  25 0
 3-21G
 ****
 27  28  29  30  38  39  40  41  42  43  44  45 0
 3-21G
 ****


