%nproc=1
%NoSave
%Mem=1900MB
#P OB98/GEN NMR

erre ene a

0 1
  C       87.800     -45.714    -196.583
  O       87.090     -44.540    -196.920
  H       87.094     -46.504    -196.311
  H       88.373     -46.041    -197.454
  H       88.490     -45.529    -195.755
  P       86.420     -43.717    -195.717
  C       88.017     -41.680    -195.913
  O       86.687     -42.163    -196.029
  C       88.017     -40.221    -195.460
  O       89.390     -39.822    -195.187
  C       87.440     -39.239    -196.493
  O       86.688     -38.240    -195.797
  C       88.678     -38.597    -197.091
  O       88.422     -37.303    -197.626
  C       89.620     -38.589    -195.892
  N       93.383     -35.279    -196.744
  C       92.219     -35.167    -196.072
  N       91.292     -36.120    -195.845
  C       91.698     -37.303    -196.337
  C       92.859     -37.574    -197.038
  C       93.723     -36.486    -197.256
  N       94.877     -36.573    -197.998
  N       92.890     -38.899    -197.426
  C       91.755     -39.410    -196.990
  N       91.002     -38.483    -196.327
  O       87.409     -44.028    -194.495
  O       85.009     -44.076    -195.399
  H       89.271     -36.832    -197.734
  H       87.127     -44.847    -194.047
  H       91.995     -34.181    -195.672
  H       91.421     -40.425    -197.150
  H       89.424     -37.756    -195.206
  H       89.067     -39.232    -197.896
  H       86.808     -39.716    -197.250
  H       87.469     -40.151    -194.513
  H       88.509     -41.748    -196.888
  H       95.376     -35.718    -198.191
  H       95.087     -37.436    -198.477
  H       88.565     -42.300    -195.197
  P       85.157     -38.573    -195.457
  C       85.402     -39.630    -193.090
  O       84.965     -38.521    -193.867
  O       85.036     -40.133    -195.793
  O       84.174     -37.764    -196.239
  H       84.144     -40.340    -196.121
  H       85.204     -39.441    -192.056
  H       86.453     -39.773    -193.232
  H       84.877     -40.510    -193.398

 6  7  8  9  10  11  12  13  14  15  25  28  32  33  34  35 0
 6-311+G(2d,p)
 ****
 36  39  40 0
 6-311+G(2d,p)
 ****
 1  2  3  4  5  16  17  18  19  20  21  22  23  24 0
 3-21G
 ****
 26  27  29  30  31  37  38  41  42  43  44  45  46  47 0
 3-21G
 ****
 48 0
 3-21G
 ****


