%nproc=1
%NoSave
%Mem=1900MB
#P OB98/GEN NMR

erre ene a

0 1
  C     -190.303     290.312     510.559
  O     -190.942     290.836     509.394
  P     -191.910     290.003     508.437
  C     -190.732     290.661     506.186
  O     -191.902     290.694     506.993
  C     -190.758     291.689     505.042
  O     -190.961     293.020     505.589
  C     -189.411     291.722     504.319
  O     -189.123     290.775     503.301
  C     -189.246     293.171     503.879
  O     -189.697     293.395     502.542
  C     -190.116     293.944     504.875
  N     -186.783     297.766     505.562
  C     -187.263     297.229     504.382
  N     -186.761     297.732     503.239
  N     -188.147     296.265     504.336
  C     -188.503     295.792     505.547
  C     -188.082     296.229     506.784
  C     -187.148     297.336     506.830
  O     -186.700     297.858     507.849
  N     -188.642     295.496     507.799
  C     -189.383     294.595     507.176
  N     -189.335     294.742     505.803
  O     -193.241     289.653     509.008
  O     -191.102     288.627     508.201
  H     -189.160     292.842     501.948
  H     -191.777     287.918     508.102
  H     -186.124     298.528     505.543
  H     -189.968     293.831     507.663
  H     -190.784     294.642     504.357
  H     -188.188     293.463     503.898
  H     -185.997     298.386     503.210
  H     -188.635     291.559     505.080
  H     -186.944     297.200     502.385
  H     -191.604     291.504     504.370
  H     -190.655     289.647     505.785
  H     -189.847     290.823     506.805
  P     -187.702     290.104     503.013
  C     -186.805     291.368     500.974
  O     -187.427     290.185     501.440
  O     -187.956     288.539     503.242
  O     -186.584     290.597     503.878
  H     -187.113     288.069     503.350
  H     -186.950     291.447     499.889
  H     -185.738     291.333     501.183
  H     -187.241     292.253     501.454
  H     -189.712     291.078     511.016
  H     -189.673     289.492     510.282
  H     -191.045     289.974     511.251

 3  4  5  6  7  8  9  10  11  12  23  26  30  31 0
 6-311+G(2d,p)
 ****
 33  35  36  37  38 0
 6-311+G(2d,p)
 ****
 1  2  13  14  15  16  17  18  19  20  21  22  24  25 0
 3-21G
 ****
 27  28  29  32  34  39  40  41  42  43  44  45  46  47  48  49 0
 3-21G
 ****


