%nproc=1
%NoSave
%Mem=1900MB
#P OB98/GEN NMR

erre ene a

0 1
  C      871.804    -697.797    -120.183
  O      871.807    -696.381    -120.080
  H      872.742    -698.178    -119.737
  H      871.772    -698.098    -121.229
  H      870.960    -698.228    -119.635
  P      870.490    -695.587    -120.509
  C      871.855    -693.454    -121.040
  O      870.965    -694.445    -121.529
  C      871.976    -692.320    -122.045
  O      872.826    -692.719    -123.139
  C      870.657    -691.904    -122.674
  O      869.894    -691.120    -121.779
  C      871.149    -691.160    -123.912
  O      871.533    -689.826    -123.578
  C      872.370    -692.019    -124.316
  N      872.059    -692.954    -125.424
  C      872.100    -692.429    -126.696
  O      872.335    -691.245    -126.939
  N      871.813    -693.316    -127.711
  C      871.427    -694.604    -127.557
  O      871.101    -695.337    -128.491
  C      871.378    -695.103    -126.178
  C      871.686    -694.250    -125.176
  O      869.619    -695.112    -119.398
  O      869.714    -696.613    -121.467
  H      872.292    -689.907    -122.965
  H      868.954    -696.992    -120.988
  H      871.826    -692.965    -128.657
  H      871.066    -696.121    -126.007
  H      871.652    -694.596    -124.151
  H      873.185    -691.357    -124.651
  H      870.367    -691.089    -124.688
  H      870.098    -692.797    -122.996
  H      872.474    -691.461    -121.550
  H      872.841    -693.925    -120.898
  H      871.484    -693.084    -120.082
  P      868.380    -691.547    -121.434
  C      867.766    -689.192    -120.589
  O      867.467    -690.215    -121.523
  O      868.204    -692.353    -120.193
  O      867.931    -692.386    -122.739
  H      867.688    -693.283    -122.455
  H      867.103    -688.366    -120.741
  H      868.777    -688.868    -120.726
  H      867.644    -689.569    -119.595

 6  7  8  9  10  11  12  13  14  15  16  26  31  32  33  34  35 0
 6-311+G(2d,p)
 ****
 36  37 0
 6-311+G(2d,p)
 ****
 1  2  3  4  5  17  18  19  20  21  22  23  24  25 0
 3-21G
 ****
 27  28  29  30  38  39  40  41  42  43  44  45 0
 3-21G
 ****


