%nproc=1
%NoSave
%Mem=1900MB
#P OB98/GEN NMR

erre ene a

0 1
  C      163.567      86.160      43.522
  O      162.452      87.021      43.413
  H      163.406      85.482      44.363
  H      164.468      86.749      43.711
  H      163.693      85.568      42.611
  P      162.322      87.870      42.056
  C      161.940      87.232      39.569
  O      162.388      86.814      40.849
  C      162.211      86.148      38.531
  O      163.633      85.952      38.368
  C      161.628      84.782      38.882
  O      160.258      84.689      38.514
  C      162.488      83.878      38.015
  O      162.038      83.947      36.644
  C      163.870      84.534      38.144
  N      167.112      80.898      39.557
  C      166.428      81.062      38.368
  N      166.631      80.117      37.424
  N      165.614      82.057      38.125
  C      165.491      82.912      39.168
  C      166.110      82.852      40.397
  C      167.018      81.756      40.645
  O      167.658      81.572      41.678
  N      165.736      83.897      41.201
  C      164.875      84.574      40.468
  N      164.689      84.016      39.227
  O      163.732      88.627      41.979
  O      161.185      88.834      42.016
  H      162.114      84.877      36.365
  H      163.609      89.553      42.260
  H      167.718      80.108      39.695
  H      164.367      85.475      40.784
  H      164.461      84.440      37.226
  H      162.432      82.830      38.314
  H      167.225      79.314      37.552
  H      161.783      84.534      39.939
  H      166.141      80.219      36.543
  H      161.818      86.499      37.568
  H      162.471      88.148      39.287
  H      160.866      87.441      39.619
  P      159.333      83.635      39.293
  C      158.621      83.392      41.775
  O      159.615      83.836      40.862
  O      160.039      82.238      38.962
  O      157.899      83.629      38.891
  H      159.463      81.703      38.380
  H      158.943      83.589      42.776
  H      158.466      82.341      41.650
  H      157.705      83.912      41.586

 6  7  8  9  10  11  12  13  14  15  26  29  33  34 0
 6-311+G(2d,p)
 ****
 36  38  39  40  41 0
 6-311+G(2d,p)
 ****
 1  2  3  4  5  16  17  18  19  20  21  22  23  24  25 0
 3-21G
 ****
 27  28  30  31  32  35  37  42  43  44  45  46  47 0
 3-21G
 ****
 48  49 0
 3-21G
 ****


