%nproc=1
%NoSave
%Mem=1900MB
#P OB98/GEN NMR

erre ene a

0 1
  C       26.406    -118.023     -65.758
  O       25.301    -117.146     -65.815
  H       26.297    -118.663     -64.879
  H       27.336    -117.459     -65.668
  H       26.437    -118.655     -66.650
  P       25.245    -116.048     -66.983
  C       26.156    -113.658     -67.326
  O       25.925    -114.716     -66.402
  C       26.647    -112.407     -66.586
  O       25.499    -111.777     -65.968
  C       27.665    -112.740     -65.482
  O       28.868    -111.980     -65.591
  C       26.847    -112.605     -64.201
  O       27.608    -112.293     -63.055
  C       25.785    -111.566     -64.573
  N       24.566    -111.658     -63.773
  C       24.360    -110.678     -62.802
  O       25.119    -109.741     -62.577
  N       23.208    -110.806     -62.067
  C       22.279    -111.797     -62.193
  O       21.265    -111.856     -61.509
  C       22.565    -112.815     -63.216
  C       23.676    -112.705     -63.945
  O       23.907    -115.841     -67.612
  O       26.322    -116.564     -68.052
  H       28.201    -111.548     -63.297
  H       25.858    -116.949     -68.821
  H       23.041    -110.098     -61.374
  H       21.853    -113.623     -63.333
  H       23.920    -113.438     -64.708
  H       26.182    -110.556     -64.455
  H       26.352    -113.569     -64.008
  H       28.015    -113.774     -65.577
  H       27.058    -111.701     -67.318
  H       25.211    -113.448     -67.839
  H       26.903    -113.969     -68.065
  P       30.244    -112.521     -66.193
  C       31.991    -114.385     -65.558
  O       30.791    -113.688     -65.244
  O       31.228    -111.481     -66.612
  O       29.789    -113.323     -67.518
  H       30.523    -113.228     -68.159
  H       32.183    -115.121     -64.806
  H       32.806    -113.693     -65.596
  H       31.886    -114.865     -66.508

 6  7  8  9  10  11  12  13  14  15  16  26  31  32  33  34  35 0
 6-311+G(2d,p)
 ****
 36  37 0
 6-311+G(2d,p)
 ****
 1  2  3  4  5  17  18  19  20  21  22  23  24  25 0
 3-21G
 ****
 27  28  29  30  38  39  40  41  42  43  44  45 0
 3-21G
 ****


