%nproc=1
%NoSave
%Mem=1900MB
#P OB98/GEN NMR

erre ene a

0 1
  C     -164.774     245.682      50.598
  O     -165.002     244.523      49.821
  H     -163.735     245.677      50.937
  H     -165.430     245.679      51.472
  H     -164.948     246.582      50.001
  P     -166.419     244.426      49.069
  C     -165.395     243.477      46.847
  O     -166.240     243.277      47.966
  C     -164.001     242.911      47.121
  O     -164.139     241.557      47.615
  C     -163.099     242.868      45.887
  O     -161.762     243.172      46.291
  C     -163.188     241.423      45.430
  O     -162.051     241.038      44.659
  C     -163.360     240.689      46.766
  N     -164.003     239.386      46.604
  C     -163.157     238.279      46.472
  O     -161.937     238.430      46.474
  N     -163.714     237.037      46.298
  C     -165.000     236.917      46.192
  N     -165.488     235.662      45.998
  C     -165.927     238.062      46.272
  C     -165.368     239.252      46.487
  O     -166.424     245.779      48.214
  O     -167.587     244.266      49.983
  H     -161.246     241.358      45.124
  H     -165.567     245.985      47.804
  H     -166.992     237.913      46.162
  H     -165.976     240.145      46.566
  H     -162.387     240.535      47.249
  H     -164.079     241.285      44.805
  H     -163.407     243.556      45.100
  H     -163.543     243.495      47.927
  H     -164.819     234.906      45.930
  H     -165.316     244.544      46.617
  H     -166.465     235.459      45.850
  H     -165.847     242.975      45.986
  P     -161.279     244.698      46.320
  C     -159.665     244.475      48.318
  O     -159.798     244.764      46.934
  O     -162.247     245.675      46.896
  O     -161.015     245.016      44.765
  H     -161.313     245.931      44.593
  H     -158.636     244.553      48.601
  H     -160.014     243.482      48.510
  H     -160.245     245.173      48.885

 6  7  8  9  10  11  12  13  14  15  16  26  30  31  32  33  35 0
 6-311+G(2d,p)
 ****
 37  38 0
 6-311+G(2d,p)
 ****
 1  2  3  4  5  17  18  19  20  21  22  23  24  25 0
 3-21G
 ****
 27  28  29  34  36  39  40  41  42  43  44  45  46 0
 3-21G
 ****


