%nproc=1
%NoSave
%Mem=1900MB
#P OB98/GEN NMR

erre ene a

0 1
  C      -19.486      29.215    -288.033
  O      -20.160      29.855    -286.947
  P      -19.495      29.705    -285.496
  C      -18.813      32.210    -285.604
  O      -18.413      30.876    -285.319
  C      -18.227      33.167    -284.566
  O      -18.881      33.033    -283.285
  C      -16.749      32.926    -284.287
  O      -15.943      33.415    -285.345
  C      -16.582      33.671    -282.966
  O      -16.459      35.084    -283.199
  C      -17.916      33.375    -282.263
  N      -15.315      31.536    -278.259
  C      -15.152      32.650    -279.007
  N      -15.887      33.067    -280.059
  C      -16.888      32.208    -280.311
  C      -17.181      31.037    -279.632
  C      -16.338      30.702    -278.559
  N      -16.494      29.561    -277.807
  N      -18.284      30.419    -280.183
  C      -18.637      31.191    -281.192
  N      -17.831      32.291    -281.301
  O      -18.607      28.382    -285.632
  O      -20.491      29.590    -284.389
  H      -17.307      35.391    -283.582
  H      -19.012      27.654    -285.127
  H      -14.321      33.289    -278.725
  H      -19.462      30.997    -281.864
  H      -18.305      34.251    -281.727
  H      -15.699      33.352    -282.403
  H      -16.561      31.855    -284.141
  H      -18.374      34.194    -284.926
  H      -19.903      32.286    -285.604
  H      -15.798      29.356    -277.107
  H      -17.199      28.891    -278.078
  H      -18.479      32.468    -286.614
  P      -15.296      32.345    -286.349
  C      -17.054      33.362    -287.923
  O      -16.414      32.176    -287.492
  O      -15.441      30.992    -285.513
  O      -13.924      32.678    -286.826
  H      -16.326      30.906    -285.114
  H      -17.758      33.110    -288.721
  H      -16.316      34.072    -288.310
  H      -17.605      33.810    -287.092
  H      -20.026      29.389    -288.940
  H      -19.430      28.163    -287.847
  H      -18.498      29.614    -288.124

 3  4  5  6  7  8  9  10  11  12  22  25  29  30  31  32 0
 6-311+G(2d,p)
 ****
 33  36  37 0
 6-311+G(2d,p)
 ****
 1  2  13  14  15  16  17  18  19  20  21  23  24  26 0
 3-21G
 ****
 27  28  34  35  38  39  40  41  42  43  44  45  46  47  48 0
 3-21G
 ****


