%nproc=1
%NoSave
%Mem=1900MB
#P OB98/GEN NMR

erre ene a

0 1
  C     -398.038     261.893     928.477
  O     -398.535     262.801     929.440
  H     -398.490     260.913     928.656
  H     -396.952     261.802     928.578
  H     -398.292     262.222     927.464
  P     -398.191     264.354     929.232
  C     -400.387     265.506     930.018
  O     -399.045     265.163     930.327
  C     -400.864     266.621     930.946
  O     -400.907     266.117     932.303
  C     -399.960     267.872     930.951
  O     -400.781     269.033     931.082
  C     -399.130     267.688     932.206
  O     -398.591     268.904     932.728
  C     -400.161     267.036     933.135
  N     -399.539     266.357     934.267
  C     -399.057     267.134     935.308
  O     -399.196     268.357     935.382
  N     -398.397     266.458     936.306
  C     -398.169     265.112     936.340
  O     -397.542     264.564     937.247
  C     -398.690     264.339     935.214
  C     -399.343     264.986     934.242
  O     -398.928     264.714     927.862
  O     -396.740     264.696     929.205
  H     -398.332     264.554     927.103
  H     -398.299     268.707     933.654
  H     -398.042     267.015     937.065
  H     -398.504     263.268     935.211
  H     -399.724     264.436     933.370
  H     -400.870     267.789     933.505
  H     -398.293     267.008     932.017
  H     -399.326     267.978     930.059
  H     -401.887     266.900     930.676
  H     -401.030     264.634     930.167
  H     -400.448     265.819     928.969
  P     -400.527     270.246     930.070
  C     -403.088     270.765     930.231
  O     -401.753     271.253     930.274
  O     -400.823     269.536     928.664
  O     -399.162     270.840     930.193
  H     -401.540     268.863     928.716
  H     -403.769     271.575     930.386
  H     -403.225     270.032     930.998
  H     -403.275     270.320     929.276

 6  7  8  9  10  11  12  13  14  15  16  27  31  32  33  34  35 0
 6-311+G(2d,p)
 ****
 36  37 0
 6-311+G(2d,p)
 ****
 1  2  3  4  5  17  18  19  20  21  22  23  24  25 0
 3-21G
 ****
 26  28  29  30  38  39  40  41  42  43  44  45 0
 3-21G
 ****


