%nproc=1
%NoSave
%Mem=1900MB
#P OB98/GEN NMR

erre ene a

0 1
  C     -526.065    -140.844    -680.613
  O     -524.970    -141.759    -680.440
  P     -524.514    -142.329    -679.005
  C     -525.549    -144.676    -679.381
  O     -524.357    -143.929    -679.135
  C     -525.207    -146.036    -680.001
  O     -524.738    -145.865    -681.369
  C     -524.073    -146.812    -679.336
  O     -524.476    -147.365    -678.079
  C     -523.720    -147.833    -680.401
  O     -524.590    -148.986    -680.326
  C     -523.995    -147.056    -681.707
  N     -522.770    -146.724    -682.429
  C     -522.100    -147.783    -683.028
  O     -522.483    -148.943    -682.877
  N     -520.973    -147.500    -683.794
  C     -520.523    -146.281    -683.840
  N     -519.430    -146.075    -684.616
  C     -521.134    -145.162    -683.089
  C     -522.234    -145.447    -682.417
  O     -525.392    -141.900    -677.876
  O     -523.013    -141.803    -678.800
  H     -522.816    -141.744    -677.849
  H     -524.396    -149.432    -679.478
  H     -520.678    -144.181    -683.123
  H     -522.744    -144.674    -681.852
  H     -524.657    -147.642    -682.363
  H     -522.696    -148.198    -680.296
  H     -523.220    -146.118    -679.167
  H     -526.129    -146.649    -680.030
  H     -519.040    -146.866    -685.116
  H     -526.179    -144.113    -680.078
  H     -518.995    -145.155    -684.736
  H     -526.103    -144.801    -678.446
  P     -523.319    -148.033    -677.197
  C     -523.989    -146.731    -675.042
  O     -523.802    -147.995    -675.660
  O     -522.123    -146.980    -677.243
  O     -522.883    -149.398    -677.666
  H     -521.275    -147.459    -677.316
  H     -524.732    -146.832    -674.251
  H     -524.312    -145.975    -675.763
  H     -523.035    -146.420    -674.590
  H     -526.174    -140.611    -681.652
  H     -525.870    -139.946    -680.065
  H     -526.966    -141.294    -680.252

 3  4  5  6  7  8  9  10  11  12  13  24  27  28  29  30  32 0
 6-311+G(2d,p)
 ****
 34  35 0
 6-311+G(2d,p)
 ****
 1  2  14  15  16  17  18  19  20  21  22  23  25  26 0
 3-21G
 ****
 31  33  36  37  38  39  40  41  42  43  44  45  46 0
 3-21G
 ****


