%nproc=1
%NoSave
%Mem=1900MB
#P OB98/GEN NMR

erre ene a

0 1
  C      187.826     178.797    -181.966
  O      187.393     178.276    -180.728
  H      187.356     179.773    -182.118
  H      187.532     178.136    -182.785
  H      188.912     178.931    -181.965
  P      187.887     176.816    -180.292
  C      185.772     175.597    -179.452
  O      186.932     176.343    -179.092
  C      184.782     175.565    -178.282
  O      185.436     174.907    -177.170
  C      184.359     176.970    -177.830
  O      182.945     177.140    -177.781
  C      185.141     177.172    -176.538
  O      184.551     178.076    -175.627
  C      185.305     175.744    -176.006
  N      186.451     175.572    -175.115
  C      186.314     176.026    -173.807
  O      185.302     176.536    -173.335
  N      187.418     175.863    -173.008
  C      188.608     175.316    -173.381
  O      189.559     175.192    -172.618
  C      188.698     174.876    -174.782
  C      187.632     175.023    -175.573
  O      189.347     176.683    -180.016
  O      187.432     175.875    -181.505
  H      184.445     178.934    -176.086
  H      188.203     175.670    -182.067
  H      187.327     176.178    -172.055
  H      189.632     174.446    -175.115
  H      187.662     174.708    -176.611
  H      184.414     175.433    -175.462
  H      186.129     177.574    -176.793
  H      184.678     177.726    -178.559
  H      183.919     174.953    -178.567
  H      186.090     174.583    -179.709
  H      185.297     176.055    -180.327
  P      182.180     178.500    -178.114
  C      180.492     178.542    -176.108
  O      180.703     178.404    -177.505
  O      182.301     178.980    -179.521
  O      182.914     179.579    -177.166
  H      182.897     180.430    -177.649
  H      179.448     178.449    -175.894
  H      180.837     179.503    -175.788
  H      181.032     177.778    -175.589

 6  7  8  9  10  11  12  13  14  15  16  26  31  32  33  34  35 0
 6-311+G(2d,p)
 ****
 36  37 0
 6-311+G(2d,p)
 ****
 1  2  3  4  5  17  18  19  20  21  22  23  24  25 0
 3-21G
 ****
 27  28  29  30  38  39  40  41  42  43  44  45 0
 3-21G
 ****


