%nproc=1
%NoSave
%Mem=1900MB
#P OB98/GEN NMR

erre ene a

0 1
  C      -57.376     -62.039    -497.474
  O      -56.791     -63.234    -496.995
  H      -57.411     -61.291    -496.679
  H      -56.765     -61.654    -498.295
  H      -58.385     -62.236    -497.847
  P      -57.543     -63.975    -495.785
  C      -56.791     -62.270    -493.972
  O      -56.713     -63.603    -494.464
  C      -56.427     -62.249    -492.492
  O      -57.373     -63.039    -491.736
  C      -55.055     -62.829    -492.174
  O      -54.012     -61.899    -492.404
  C      -55.214     -63.121    -490.692
  O      -55.096     -61.897    -489.942
  C      -56.652     -63.649    -490.630
  N      -56.530     -68.068    -488.049
  C      -56.381     -66.785    -487.653
  N      -56.425     -65.666    -488.400
  C      -56.642     -65.966    -489.689
  C      -56.804     -67.225    -490.248
  C      -56.748     -68.314    -489.364
  N      -56.880     -69.624    -489.768
  N      -56.974     -67.135    -491.616
  C      -56.949     -65.842    -491.873
  N      -56.742     -65.095    -490.744
  O      -57.190     -65.520    -496.014
  O      -59.011     -63.732    -495.690
  H      -55.235     -62.128    -489.006
  H      -57.837     -66.082    -495.550
  H      -56.208     -66.641    -486.589
  H      -57.077     -65.401    -492.852
  H      -57.165     -63.363    -489.705
  H      -54.458     -63.805    -490.307
  H      -54.881     -63.772    -492.710
  H      -56.502     -61.212    -492.142
  H      -57.811     -61.900    -494.102
  H      -56.639     -70.332    -489.092
  H      -56.892     -69.821    -490.759
  H      -56.107     -61.637    -494.544
  P      -52.886     -62.304    -493.477
  C      -51.278     -63.037    -491.568
  O      -51.487     -62.199    -492.703
  O      -52.862     -61.051    -494.469
  O      -53.141     -63.591    -494.190
  H      -52.552     -61.316    -495.356
  H      -50.305     -62.853    -491.163
  H      -51.353     -64.063    -491.863
  H      -52.019     -62.824    -490.826

 6  7  8  9  10  11  12  13  14  15  25  28  32  33  34  35 0
 6-311+G(2d,p)
 ****
 36  39  40 0
 6-311+G(2d,p)
 ****
 1  2  3  4  5  16  17  18  19  20  21  22  23  24 0
 3-21G
 ****
 26  27  29  30  31  37  38  41  42  43  44  45  46  47 0
 3-21G
 ****
 48 0
 3-21G
 ****


