%nproc=1
%NoSave
%Mem=1900MB
#P OB98/GEN NMR

erre ene a

0 1
  C     -178.080     708.915      59.693
  O     -179.297     709.595      59.931
  H     -177.926     708.790      58.615
  H     -177.259     709.509      60.097
  H     -178.089     707.938      60.184
  P     -180.627     708.879      59.384
  C     -181.744     710.242      57.488
  O     -180.762     709.277      57.830
  C     -182.047     710.176      55.989
  O     -182.798     708.959      55.732
  C     -182.868     711.366      55.460
  O     -182.247     711.925      54.294
  C     -184.196     710.747      55.051
  O     -184.770     711.377      53.915
  C     -183.821     709.296      54.785
  N     -188.562     708.405      53.138
  C     -187.541     709.100      52.589
  N     -186.270     709.215      53.029
  C     -186.087     708.488      54.147
  C     -187.026     707.712      54.810
  C     -188.319     707.698      54.270
  N     -189.376     707.038      54.861
  N     -186.470     707.122      55.931
  C     -185.226     707.574      55.966
  N     -184.957     708.414      54.917
  O     -181.804     709.714      60.089
  O     -180.726     707.424      59.696
  H     -185.601     710.905      53.714
  H     -182.318     709.104      60.655
  H     -187.775     709.643      51.678
  H     -184.502     707.356      56.744
  H     -183.399     709.162      53.778
  H     -184.896     710.828      55.892
  H     -183.006     712.149      56.210
  H     -181.096     710.091      55.444
  H     -181.374     711.249      57.732
  H     -190.294     707.175      54.473
  H     -189.228     706.610      55.763
  H     -182.652     710.050      58.070
  P     -181.581     713.380      54.476
  C     -183.335     714.762      53.127
  O     -182.758     714.477      54.408
  O     -180.778     713.587      53.106
  O     -180.681     713.488      55.662
  H     -179.836     713.766      53.299
  H     -184.098     715.504      53.237
  H     -183.762     713.869      52.721
  H     -182.576     715.126      52.467

 6  7  8  9  10  11  12  13  14  15  25  28  32  33  34  35 0
 6-311+G(2d,p)
 ****
 36  39  40 0
 6-311+G(2d,p)
 ****
 1  2  3  4  5  16  17  18  19  20  21  22  23  24 0
 3-21G
 ****
 26  27  29  30  31  37  38  41  42  43  44  45  46  47  48 0
 3-21G
 ****


