%nproc=1
%NoSave
%Mem=1900MB
#P OB98/GEN NMR

erre ene a

0 1
  C      -61.893     319.352     558.598
  O      -63.243     319.752     558.852
  P      -64.452     318.711     558.676
  C      -64.690     319.025     556.148
  O      -64.404     318.096     557.194
  C      -64.906     318.356     554.780
  O      -65.391     319.316     553.808
  C      -63.652     317.697     554.181
  O      -64.124     316.561     553.448
  C      -63.143     318.774     553.239
  O      -62.251     318.267     552.260
  C      -64.470     319.342     552.708
  N      -64.320     320.692     552.161
  C      -64.601     320.855     550.803
  O      -64.912     319.891     550.106
  N      -64.487     322.115     550.256
  C      -64.029     323.092     550.976
  N      -63.921     324.302     550.371
  C      -63.631     322.941     552.391
  C      -63.816     321.729     552.908
  O      -65.793     319.228     559.093
  O      -64.021     317.465     559.601
  H      -61.941     319.020     551.708
  H      -64.820     317.024     559.939
  H      -63.237     323.774     552.941
  H      -63.560     321.508     553.945
  H      -64.871     318.698     551.914
  H      -62.610     319.550     553.810
  H      -62.905     317.414     554.928
  H      -65.691     317.602     554.908
  H      -64.178     324.363     549.392
  H      -63.857     319.734     556.072
  H      -63.471     325.095     550.797
  H      -65.578     319.604     556.418
  P      -64.048     315.084     554.055
  C      -61.582     314.593     553.584
  O      -62.553     314.862     554.578
  O      -64.553     314.009     553.145
  O      -64.914     315.142     555.408
  H      -65.154     314.236     555.681
  H      -60.593     314.673     554.023
  H      -61.657     315.304     552.754
  H      -61.717     313.571     553.207
  H      -61.237     320.180     558.769
  H      -61.802     319.029     557.582
  H      -61.630     318.548     559.253

 3  4  5  6  7  8  9  10  11  12  13  23  27  28  29  30  32 0
 6-311+G(2d,p)
 ****
 34  35 0
 6-311+G(2d,p)
 ****
 1  2  14  15  16  17  18  19  20  21  22  24  25  26 0
 3-21G
 ****
 31  33  36  37  38  39  40  41  42  43  44  45  46 0
 3-21G
 ****


