%nproc=1
%NoSave
%Mem=1900MB
#P OB98/GEN NMR

erre ene a

0 1
  C     -291.677      -0.604     556.455
  O     -292.321      -1.885     556.465
  P     -292.158      -2.769     557.793
  C     -289.940      -4.109     557.616
  O     -290.586      -2.935     558.100
  C     -288.415      -4.018     557.788
  O     -288.040      -4.100     559.196
  C     -287.643      -5.130     557.059
  O     -286.402      -4.574     556.622
  C     -287.367      -6.134     558.166
  O     -286.301      -7.016     557.818
  C     -287.106      -5.186     559.331
  N     -284.793      -8.139     562.817
  C     -284.377      -7.641     561.627
  N     -285.068      -6.875     560.746
  C     -286.295      -6.607     561.223
  C     -286.859      -7.045     562.399
  C     -286.053      -7.853     563.224
  N     -286.481      -8.387     564.426
  N     -288.163      -6.592     562.524
  C     -288.370      -5.891     561.424
  N     -287.265      -5.849     560.620
  O     -292.599      -4.235     557.310
  O     -292.988      -2.297     558.943
  H     -286.240      -7.695     558.514
  H     -293.475      -4.457     557.690
  H     -283.362      -7.897     561.346
  H     -289.305      -5.412     561.152
  H     -286.086      -4.773     559.312
  H     -288.273      -6.743     558.346
  H     -288.172      -5.572     556.209
  H     -288.078      -3.044     557.426
  H     -290.167      -4.255     556.553
  H     -285.855      -8.977     564.935
  H     -287.435      -8.220     564.722
  H     -290.347      -4.985     558.138
  P     -286.440      -3.679     555.292
  C     -285.814      -5.487     553.531
  O     -286.832      -4.673     554.095
  O     -284.897      -3.338     555.020
  O     -287.275      -2.447     555.416
  H     -284.820      -2.503     554.514
  H     -286.222      -6.487     553.335
  H     -284.948      -5.596     554.197
  H     -285.479      -5.048     552.586
  H     -291.862      -0.119     555.519
  H     -290.623      -0.734     556.588
  H     -292.065      -0.003     557.251

 3  4  5  6  7  8  9  10  11  12  22  25  29  30  31  32 0
 6-311+G(2d,p)
 ****
 33  36  37 0
 6-311+G(2d,p)
 ****
 1  2  13  14  15  16  17  18  19  20  21  23  24  26 0
 3-21G
 ****
 27  28  34  35  38  39  40  41  42  43  44  45  46  47  48 0
 3-21G
 ****


