%nproc=1
%NoSave
%Mem=1900MB
#P OB98/GEN NMR

erre ene a

0 1
  C      533.588     323.508     370.558
  O      532.873     324.051     369.468
  H      533.156     322.540     370.822
  H      533.512     324.171     371.428
  H      534.647     323.362     370.302
  P      533.395     325.415     368.799
  C      532.512     327.781     369.319
  O      533.085     326.588     369.850
  C      531.744     328.525     370.418
  O      530.476     327.881     370.660
  C      532.466     328.548     371.772
  O      533.528     329.488     371.745
  C      531.306     328.897     372.688
  O      531.015     330.305     372.644
  C      530.156     328.082     372.057
  N      529.921     326.807     372.739
  C      529.753     326.868     374.128
  O      529.812     327.913     374.766
  N      529.570     325.657     374.751
  C      529.631     324.427     374.156
  O      529.684     323.371     374.780
  C      529.730     324.430     372.694
  C      529.872     325.593     372.051
  O      532.920     325.673     367.404
  O      534.985     325.282     368.871
  H      535.329     325.021     367.993
  H      530.135     330.421     373.045
  H      529.510     325.688     375.761
  H      529.708     323.479     372.176
  H      529.977     325.619     370.973
  H      529.216     328.658     372.084
  H      531.514     328.645     373.727
  H      532.836     327.544     372.012
  H      531.548     329.547     370.066
  H      531.824     327.518     368.515
  H      533.316     328.403     368.913
  P      534.870     329.227     372.580
  C      535.618     327.914     374.646
  O      534.549     328.202     373.771
  O      535.596     330.465     373.012
  O      535.793     328.352     371.586
  H      536.667     328.791     371.497
  H      535.290     327.224     375.395
  H      535.949     328.818     375.114
  H      536.425     327.482     374.093

 6  7  8  9  10  11  12  13  14  15  16  27  31  32  33  34  35 0
 6-311+G(2d,p)
 ****
 36  37 0
 6-311+G(2d,p)
 ****
 1  2  3  4  5  17  18  19  20  21  22  23  24  25 0
 3-21G
 ****
 26  28  29  30  38  39  40  41  42  43  44  45 0
 3-21G
 ****


