%nproc=1
%NoSave
%Mem=1900MB
#P OB98/GEN NMR

erre ene a

0 1
  C      513.064    -247.807     196.789
  O      513.036    -247.483     198.184
  P      511.658    -247.675     198.981
  C      510.427    -249.751     199.962
  O      511.666    -249.117     199.680
  C      510.625    -250.927     200.924
  O      511.432    -251.970     200.344
  C      511.332    -250.542     202.221
  O      510.426    -249.972     203.154
  C      511.811    -251.900     202.703
  O      510.720    -252.602     203.343
  C      512.200    -252.599     201.396
  N      516.582    -255.200     200.863
  C      515.338    -255.586     201.231
  N      514.230    -254.839     201.366
  C      514.487    -253.550     201.065
  C      515.704    -253.003     200.675
  C      516.787    -253.891     200.576
  N      518.051    -253.487     200.192
  N      515.587    -251.648     200.459
  C      514.315    -251.385     200.699
  N      513.611    -252.496     201.076
  O      510.588    -247.850     197.799
  O      511.312    -246.532     199.869
  H      510.330    -251.987     203.993
  H      509.736    -247.453     198.065
  H      515.223    -256.654     201.443
  H      513.857    -250.401     200.608
  H      511.941    -253.668     201.400
  H      512.615    -251.823     203.444
  H      512.193    -249.885     202.019
  H      509.635    -251.346     201.156
  H      509.963    -250.097     199.035
  H      518.769    -254.192     200.126
  H      518.201    -252.519     199.959
  H      509.734    -249.007     200.387
  P      509.995    -248.439     202.920
  C      507.943    -247.503     201.616
  O      508.980    -248.464     201.671
  O      511.330    -247.784     202.321
  O      509.513    -247.741     204.141
  H      511.370    -246.833     202.570
  H      507.558    -247.462     200.597
  H      508.311    -246.508     201.896
  H      507.132    -247.800     202.290
  H      514.045    -247.628     196.401
  H      512.357    -247.197     196.267
  H      512.811    -248.838     196.657

 3  4  5  6  7  8  9  10  11  12  22  25  29  30  31  32 0
 6-311+G(2d,p)
 ****
 33  36  37 0
 6-311+G(2d,p)
 ****
 1  2  13  14  15  16  17  18  19  20  21  23  24  26 0
 3-21G
 ****
 27  28  34  35  38  39  40  41  42  43  44  45  46  47  48 0
 3-21G
 ****


