%nproc=1
%NoSave
%Mem=1900MB
#P OB98/GEN NMR

erre ene a

0 1
  C      156.843     421.550      -1.764
  O      157.079     422.927      -1.577
  P      157.163     423.550      -0.103
  C      154.715     424.315       0.120
  O      155.702     423.378       0.541
  C      153.714     424.563       1.243
  O      153.269     423.314       1.833
  C      154.277     425.353       2.417
  O      154.641     426.696       2.181
  C      153.223     425.095       3.480
  O      152.092     425.952       3.314
  C      152.834     423.624       3.180
  N      153.399     422.700       4.160
  C      152.691     422.564       5.348
  O      151.648     423.172       5.594
  N      153.236     421.723       6.277
  C      154.423     421.055       6.157
  O      154.876     420.351       7.049
  C      155.135     421.249       4.885
  C      154.600     422.050       3.959
  O      157.719     424.932      -0.027
  O      158.018     422.460       0.707
  H      151.388     425.631       3.910
  H      157.622     421.571       0.735
  H      152.748     421.620       7.153
  H      156.069     420.724       4.751
  H      155.108     422.211       3.012
  H      151.742     423.509       3.190
  H      153.612     425.266       4.489
  H      155.196     424.853       2.752
  H      152.831     425.049       0.815
  H      154.187     423.908      -0.746
  H      155.204     425.245      -0.192
  P      155.829     427.436       2.962
  C      154.570     427.894       5.180
  O      155.617     427.206       4.534
  O      156.171     428.815       2.504
  O      157.070     426.464       2.650
  H      157.891     426.994       2.621
  H      154.602     427.657       6.247
  H      153.602     427.578       4.781
  H      154.689     428.975       5.061
  H      156.822     421.331      -2.811
  H      155.903     421.286      -1.326
  H      157.625     420.988      -1.297

 3  4  5  6  7  8  9  10  11  12  13  23  28  29  30  31  32 0
 6-311+G(2d,p)
 ****
 33  34 0
 6-311+G(2d,p)
 ****
 1  2  14  15  16  17  18  19  20  21  22  24  25  26  27 0
 3-21G
 ****
 35  36  37  38  39  40  41  42  43  44  45 0
 3-21G
 ****


