%nproc=1
%NoSave
%Mem=1900MB
#P OB98/GEN NMR

erre ene a

0 1
  C      -33.932    -589.704    -898.930
  O      -32.649    -589.925    -898.360
  H      -33.884    -589.901    -900.000
  H      -34.241    -588.670    -898.770
  H      -34.664    -590.381    -898.470
  P      -32.527    -589.734    -896.760
  C      -32.100    -592.251    -896.180
  O      -32.985    -591.118    -896.120
  C      -32.692    -593.448    -895.430
  O      -32.840    -593.089    -894.020
  C      -34.085    -593.840    -895.940
  O      -34.255    -595.285    -895.730
  C      -35.015    -593.094    -894.970
  O      -36.298    -593.599    -895.000
  C      -34.225    -593.292    -893.670
  N      -37.191    -592.780    -889.530
  C      -36.932    -593.862    -890.320
  N      -36.081    -593.905    -891.380
  C      -35.501    -592.712    -891.620
  C      -35.704    -591.528    -890.920
  C      -36.609    -591.579    -889.820
  N      -36.874    -590.516    -889.020
  N      -34.955    -590.509    -891.430
  C      -34.319    -591.068    -892.490
  N      -34.651    -592.388    -892.620
  O      -33.751    -588.729    -896.420
  O      -31.209    -589.172    -896.280
  H      -36.317    -594.563    -894.810
  H      -33.412    -587.813    -896.440
  H      -37.402    -594.760    -890.020
  H      -33.631    -590.552    -893.160
  H      -34.319    -594.346    -893.260
  H      -35.067    -592.005    -895.230
  H      -34.276    -593.585    -896.990
  H      -32.004    -594.299    -895.500
  H      -31.106    -591.957    -895.720
  H      -31.926    -592.512    -897.250
  H      -37.531    -590.637    -888.260
  H      -36.461    -589.580    -889.220
  P      -33.923    -596.281    -896.920
  C      -31.924    -597.729    -896.000
  O      -32.327    -596.680    -896.880
  O      -33.913    -595.284    -898.220
  O      -34.867    -597.419    -897.120
  H      -34.420    -595.695    -898.950
  H      -30.867    -597.876    -896.081
  H      -32.431    -598.633    -896.266
  H      -32.171    -597.465    -894.993

 6  7  8  9  10  11  12  13  14  15  25  28  32  33  34  35 0
 6-311+G(2d,p)
 ****
 36  37  40 0
 6-311+G(2d,p)
 ****
 1  2  3  4  5  16  17  18  19  20  21  22  23  24 0
 3-21G
 ****
 26  27  29  30  31  38  39 41  42  43  44  45  46  47  48 0
 3-21G
 ****


