%nproc=1
%NoSave
%Mem=1900MB
#P OB98/GEN NMR

erre ene a

0 1
  C     -613.053    -405.575    -493.845
  O     -612.621    -405.411    -495.176
  P     -611.263    -404.634    -495.504
  C     -609.848    -406.750    -495.061
  O     -610.117    -405.412    -494.672
  C     -608.374    -406.895    -495.502
  O     -607.503    -406.808    -494.359
  C     -608.072    -408.230    -496.154
  O     -608.538    -408.259    -497.500
  C     -606.541    -408.276    -496.027
  O     -605.915    -407.520    -497.063
  C     -606.327    -407.607    -494.649
  N     -606.064    -408.570    -493.587
  C     -604.732    -408.993    -493.471
  O     -603.886    -408.583    -494.252
  N     -604.418    -409.921    -492.503
  C     -605.366    -410.382    -491.729
  N     -604.985    -411.303    -490.802
  C     -606.787    -409.986    -491.849
  C     -607.052    -409.080    -492.788
  O     -611.312    -403.160    -495.292
  O     -610.945    -405.061    -497.012
  H     -604.969    -407.459    -496.818
  H     -611.551    -404.595    -497.652
  H     -607.536    -410.411    -491.183
  H     -608.071    -408.739    -492.931
  H     -605.502    -406.894    -494.693
  H     -606.153    -409.290    -496.077
  H     -608.521    -409.042    -495.585
  H     -608.153    -406.074    -496.186
  H     -604.009    -411.575    -490.777
  H     -610.511    -407.007    -495.909
  H     -605.653    -411.753    -490.173
  H     -610.078    -407.435    -494.241
  P     -608.859    -409.657    -498.199
  C     -611.342    -409.170    -498.723
  O     -610.411    -409.958    -497.986
  O     -607.944    -410.773    -497.864
  O     -608.789    -409.327    -499.772
  H     -608.291    -410.025    -500.232
  H     -612.299    -409.666    -498.728
  H     -610.986    -409.019    -499.750
  H     -611.455    -408.187    -498.225
  H     -613.975    -406.117    -493.834
  H     -613.198    -404.615    -493.396
  H     -612.313    -406.118    -493.294

 3  4  5  6  7  8  9  10  11  12  13  23  27  28  29  30  32 0
 6-311+G(2d,p)
 ****
 34  35 0
 6-311+G(2d,p)
 ****
 1  2  14  15  16  17  18  19  20  21  22  24  25  26 0
 3-21G
 ****
 31  33  36  37  38  39  40  41  42  43  44  45  46 0
 3-21G
 ****


