%nproc=1
%NoSave
%Mem=1900MB
#P OB98/GEN NMR

erre ene a

0 1
  C      -95.223      53.571     139.353
  O      -96.381      53.982     138.621
  P      -96.406      53.902     137.018
  C      -96.719      56.435     136.790
  O      -95.927      55.313     136.410
  C      -96.995      57.405     135.630
  O      -95.772      58.032     135.173
  C      -97.661      56.769     134.402
  O      -98.509      57.781     133.844
  C      -96.472      56.498     133.498
  O      -96.854      56.304     132.138
  C      -95.606      57.735     133.771
  N      -94.204      57.523     133.421
  C      -93.463      58.649     133.052
  O      -94.011      59.755     132.973
  N      -92.136      58.494     132.731
  C      -91.620      57.301     132.681
  N      -90.308      57.209     132.331
  C      -92.388      56.074     132.981
  C      -93.660      56.259     133.351
  O      -97.688      53.381     136.437
  O      -95.190      52.914     136.666
  H      -97.212      55.393     132.046
  H      -95.396      52.434     135.839
  H      -91.924      55.101     132.902
  H      -94.299      55.419     133.594
  H      -95.977      58.602     133.203
  H      -95.952      55.590     133.827
  H      -98.230      55.863     134.635
  H      -97.633      58.208     136.023
  H      -89.825      58.074     132.108
  H      -96.195      56.976     137.590
  H      -89.841      56.329     132.151
  H      -97.667      56.076     137.209
  P      -99.944      58.120     134.464
  C     -101.129      56.136     133.350
  O     -100.739      56.733     134.578
  O     -100.693      59.208     133.761
  O      -99.658      58.506     135.998
  H     -100.424      58.989     136.354
  H     -101.461      55.112     133.544
  H     -100.285      56.112     132.649
  H     -101.951      56.704     132.912
  H      -95.399      53.699     140.401
  H      -94.384      54.166     139.057
  H      -95.019      52.541     139.149

 3  4  5  6  7  8  9  10  11  12  13  23  27  28  29  30  32 0
 6-311+G(2d,p)
 ****
 34  35 0
 6-311+G(2d,p)
 ****
 1  2  14  15  16  17  18  19  20  21  22  24  25  26 0
 3-21G
 ****
 31  33  36  37  38  39  40  41  42  43  44  45  46 0
 3-21G
 ****


