%nproc=1
%NoSave
%Mem=1900MB
#P OB98/GEN NMR

erre ene a

0 1
  C      -36.727    -194.572    -266.689
  O      -35.431    -194.612    -267.258
  H      -37.069    -193.533    -266.670
  H      -36.713    -194.955    -265.665
  H      -37.426    -195.157    -267.295
  P      -34.673    -196.020    -267.327
  C      -33.672    -195.616    -264.974
  O      -34.434    -196.481    -265.810
  C      -32.226    -195.531    -265.466
  O      -31.477    -194.604    -264.655
  C      -31.469    -196.851    -265.398
  O      -31.875    -197.713    -266.444
  C      -30.033    -196.353    -265.487
  O      -29.683    -196.024    -266.840
  C      -30.105    -195.074    -264.614
  N      -29.668    -195.281    -263.235
  C      -28.283    -195.371    -263.037
  O      -27.511    -195.292    -263.993
  N      -27.822    -195.567    -261.757
  C      -28.650    -195.626    -260.765
  N      -28.126    -195.816    -259.525
  C      -30.112    -195.498    -260.927
  C      -30.548    -195.340    -262.177
  O      -33.446    -196.069    -268.189
  O      -35.795    -197.039    -267.842
  H      -29.724    -196.861    -267.343
  H      -35.751    -197.136    -268.813
  H      -30.771    -195.541    -260.068
  H      -31.610    -195.243    -262.388
  H      -29.485    -194.276    -265.049
  H      -29.312    -197.097    -265.139
  H      -31.609    -197.323    -264.420
  H      -32.240    -195.138    -266.491
  H      -27.114    -195.879    -259.460
  H      -33.701    -196.035    -263.962
  H      -28.656    -195.714    -258.670
  H      -34.119    -194.615    -264.945
  P      -32.184    -199.265    -266.178
  C      -30.189    -200.268    -267.458
  O      -30.756    -200.002    -266.182
  O      -33.207    -199.871    -267.078
  O      -32.588    -199.308    -264.630
  H      -33.516    -198.986    -264.503
  H      -29.246    -200.758    -267.334
  H      -30.047    -199.347    -267.984
  H      -30.848    -200.900    -268.016

 6  7  8  9  10  11  12  13  14  15  16  26  30  31  32  33  35 0
 6-311+G(2d,p)
 ****
 37  38 0
 6-311+G(2d,p)
 ****
 1  2  3  4  5  17  18  19  20  21  22  23  24  25 0
 3-21G
 ****
 27  28  29  34  36  39  40  41  42  43  44  45  46 0
 3-21G
 ****


