%nproc=1
%NoSave
%Mem=1900MB
#P OB98/GEN NMR

erre ene a

0 1
  C      971.582    -413.527     243.533
  O      970.194    -413.618     243.775
  H      971.895    -414.390     242.941
  H      972.120    -413.537     244.484
  H      971.822    -412.617     242.974
  P      969.420    -412.349     244.367
  C      969.503    -409.821     243.839
  O      969.675    -411.144     243.335
  C      969.781    -408.779     242.748
  O      971.224    -408.661     242.573
  C      969.182    -409.130     241.382
  O      968.868    -407.897     240.718
  C      970.350    -409.812     240.697
  O      970.178    -409.869     239.292
  C      971.515    -408.953     241.189
  N      972.813    -409.610     241.022
  C      973.395    -409.522     239.766
  O      972.855    -408.968     238.808
  N      974.597    -410.150     239.625
  C      975.243    -410.885     240.578
  O      976.308    -411.457     240.379
  C      974.561    -410.980     241.884
  C      973.393    -410.339     242.043
  O      969.709    -412.019     245.794
  O      967.869    -412.682     244.132
  H      970.878    -410.426     238.890
  H      967.330    -412.263     244.833
  H      975.049    -410.095     238.708
  H      975.031    -411.560     242.661
  H      972.869    -410.386     242.993
  H      971.554    -408.000     240.655
  H      970.462    -410.845     241.051
  H      968.296    -409.766     241.444
  H      969.423    -407.803     243.102
  H      970.189    -409.685     244.673
  H      968.470    -409.707     244.213
  P      967.629    -406.975     241.164
  C      967.097    -405.199     242.958
  O      968.097    -406.040     242.387
  O      966.372    -407.736     241.419
  O      967.434    -405.940     239.959
  H      966.503    -405.660     239.915
  H      967.524    -404.629     243.756
  H      966.298    -405.802     243.337
  H      966.718    -404.536     242.209

 6  7  8  9  10  11  12  13  14  15  16  26  31  32  33  34  35 0
 6-311+G(2d,p)
 ****
 36  37 0
 6-311+G(2d,p)
 ****
 1  2  3  4  5  17  18  19  20  21  22  23  24  25 0
 3-21G
 ****
 27  28  29  30  38  39  40  41  42  43  44  45 0
 3-21G
 ****


