%nproc=1
%NoSave
%Mem=1900MB
#P OB98/GEN NMR

erre ene a

0 1
  C      926.570    -431.823     223.285
  O      926.061    -433.070     223.781
  P      924.524    -433.257     224.214
  C      922.494    -432.889     222.665
  O      923.668    -433.659     222.913
  C      921.463    -433.680     221.852
  O      921.963    -433.972     220.538
  C      921.057    -435.017     222.469
  O      920.130    -434.827     223.523
  C      920.510    -435.747     221.244
  O      919.147    -435.344     220.983
  C      921.444    -435.259     220.129
  N      922.707    -439.617     217.757
  C      921.546    -438.924     217.833
  N      921.281    -437.771     218.492
  C      922.395    -437.319     219.102
  C      923.644    -437.914     219.119
  C      923.783    -439.122     218.417
  N      924.968    -439.828     218.364
  N      924.528    -437.171     219.886
  C      923.818    -436.128     220.293
  N      922.522    -436.172     219.848
  O      923.970    -432.104     224.981
  O      924.507    -434.590     225.098
  H      919.084    -434.389     221.144
  H      923.776    -434.548     225.741
  H      920.712    -439.361     217.276
  H      924.206    -435.325     220.908
  H      920.895    -435.090     219.191
  H      920.503    -436.832     221.371
  H      921.945    -435.542     222.838
  H      920.580    -433.035     221.724
  H      922.783    -431.990     222.120
  H      924.984    -440.707     217.867
  H      925.763    -439.486     218.884
  H      922.069    -432.601     223.635
  P      920.653    -434.673     225.031
  C      921.728    -432.656     226.208
  O      921.708    -433.464     225.041
  O      921.115    -435.925     225.695
  O      919.394    -434.036     225.791
  H      919.415    -434.313     226.735
  H      920.902    -431.928     226.153
  H      922.670    -432.119     226.249
  H      921.630    -433.262     227.102
  H      927.611    -431.927     223.060
  H      926.439    -431.064     224.028
  H      926.039    -431.549     222.397

 3  4  5  6  7  8  9  10  11  12  22  25  29  30  31  32 0
 6-311+G(2d,p)
 ****
 33  36  37 0
 6-311+G(2d,p)
 ****
 1  2  13  14  15  16  17  18  19  20  21  23  24  26 0
 3-21G
 ****
 27  28  34  35  38  39  40  41  42  43  44  45  46  47  48 0
 3-21G
 ****


