%nproc=1
%NoSave
%Mem=1900MB
#P OB98/GEN NMR

erre ene a

0 1
  C     -134.822     -18.239     435.320
  O     -134.152     -17.254     436.110
  P     -133.251     -17.769     437.332
  C     -134.980     -17.355     439.239
  O     -133.726     -17.013     438.664
  C     -135.052     -16.865     440.685
  O     -134.104     -17.552     441.518
  C     -134.713     -15.387     440.832
  O     -135.813     -14.586     440.446
  C     -134.371     -15.288     442.315
  O     -135.530     -14.995     443.109
  C     -133.823     -16.698     442.643
  N     -132.408     -16.691     442.960
  C     -132.069     -16.200     444.226
  O     -132.946     -15.787     444.987
  N     -130.746     -16.170     444.588
  C     -129.839     -16.565     443.745
  N     -128.545     -16.504     444.156
  C     -130.154     -17.060     442.393
  C     -131.443     -17.097     442.068
  O     -131.820     -17.128     437.029
  O     -133.179     -19.257     437.442
  H     -135.186     -14.705     443.979
  H     -131.111     -17.717     437.341
  H     -129.364     -17.372     441.721
  H     -131.766     -17.447     441.093
  H     -134.363     -17.123     443.498
  H     -133.648     -14.492     442.504
  H     -133.833     -15.144     440.229
  H     -136.065     -17.057     441.068
  H     -128.367     -16.155     445.090
  H     -135.128     -18.438     439.204
  H     -127.762     -16.781     443.582
  H     -135.778     -16.912     438.632
  P     -135.907     -14.144     438.909
  C     -136.010     -11.626     439.396
  O     -136.717     -12.756     438.923
  O     -137.014     -15.158     438.339
  O     -134.652     -14.178     438.110
  H     -137.095     -15.056     437.375
  H     -136.588     -10.728     439.159
  H     -135.031     -11.552     438.917
  H     -135.889     -11.691     440.482
  H     -135.382     -17.756     434.547
  H     -135.486     -18.803     435.941
  H     -134.100     -18.895     434.881

 3  4  5  6  7  8  9  10  11  12  13  21  23  27  28  29  30  32 0
 6-311+G(2d,p)
 ****
 34  35 0
 6-311+G(2d,p)
 ****
 1  2  14  15  16  17  18  19  20  22  24  25  26 0
 3-21G
 ****
 31  33  36  37  38  39  40  41  42  43  44  45  46 0
 3-21G
 ****


