%nproc=1
%NoSave
%Mem=1900MB
#P OB98/GEN NMR

erre ene a

0 1
  C      -81.841     -71.762     -84.067
  O      -82.234     -72.871     -84.856
  P      -83.281     -73.917     -84.240
  C      -85.463     -72.776     -85.152
  O      -84.658     -73.120     -84.040
  C      -86.931     -73.111     -84.870
  O      -87.752     -72.576     -85.944
  C      -87.231     -74.612     -84.768
  O      -88.256     -74.774     -83.780
  C      -87.766     -74.943     -86.150
  O      -88.555     -76.122     -86.164
  C      -88.540     -73.661     -86.470
  N      -88.784     -73.470     -87.900
  C      -90.050     -73.773     -88.390
  O      -90.967     -74.210     -87.697
  N      -90.228     -73.581     -89.736
  C      -89.272     -73.192     -90.628
  O      -89.483     -73.054     -91.826
  C      -87.942     -72.933     -90.060
  C      -87.766     -73.072     -88.746
  O      -82.710     -74.089     -82.757
  O      -83.396     -75.182     -85.021
  H      -82.337     -73.266     -82.396
  H      -87.997     -76.863     -85.864
  H      -91.150     -73.759     -90.107
  H      -87.151     -72.637     -90.738
  H      -86.794     -72.888     -88.304
  H      -89.495     -73.654     -85.931
  H      -86.927     -75.087     -86.840
  H      -86.351     -75.198     -84.490
  H      -87.230     -72.598     -83.947
  H      -85.133     -73.338     -86.029
  H      -85.342     -71.710     -85.370
  P      -88.081     -75.945     -82.689
  C      -86.189     -74.935     -81.189
  O      -86.573     -75.884     -82.159
  O      -88.069     -77.228     -83.653
  O      -89.156     -76.008     -81.655
  H      -87.468     -77.128     -84.408
  H      -85.255     -75.263     -80.727
  H      -86.947     -74.833     -80.408
  H      -86.024     -73.966     -81.668
  H      -81.144     -71.163     -84.615
  H      -81.380     -72.110     -83.166
  H      -82.702     -71.175     -83.823

 3  4  5  6  7  8  9  10  11  12  13  24  28  29  30  31  32 0
 6-311+G(2d,p)
 ****
 33  34 0
 6-311+G(2d,p)
 ****
 1  2  14  15  16  17  18  19  20  21  22  23  25  26  27 0
 3-21G
 ****
 35  36  37  38  39  40  41  42  43  44  45 0
 3-21G
 ****


