%nproc=1
%NoSave
%Mem=1900MB
#P OB98/GEN NMR

erre ene a

0 1
  C       57.923     -58.072      65.062
  O       57.939     -56.896      64.265
  P       58.808     -56.926      62.914
  C       60.879     -55.876      64.056
  O       60.349     -57.000      63.365
  C       62.402     -55.945      64.112
  O       62.794     -57.169      64.795
  C       63.088     -55.945      62.737
  O       64.227     -55.072      62.774
  C       63.603     -57.368      62.595
  O       64.721     -57.446      61.718
  C       63.915     -57.696      64.055
  N       67.346     -61.370      64.561
  C       67.518     -60.000      64.528
  N       68.794     -59.551      64.579
  N       66.534     -59.144      64.447
  C       65.312     -59.733      64.435
  C       65.013     -61.076      64.472
  C       66.118     -62.012      64.500
  O       66.033     -63.238      64.441
  N       63.656     -61.285      64.459
  C       63.136     -60.074      64.411
  N       64.101     -59.099      64.343
  O       58.646     -55.433      62.357
  O       58.380     -57.931      61.901
  H       64.841     -58.388      61.492
  H       58.295     -55.458      61.447
  H       68.143     -61.984      64.605
  H       62.074     -59.856      64.388
  H       64.819     -57.165      64.385
  H       62.802     -58.004      62.201
  H       69.597     -60.155      64.677
  H       62.433     -55.660      61.909
  H       68.940     -58.549      64.580
  H       62.766     -55.110      64.727
  H       60.482     -55.860      65.077
  H       60.564     -54.961      63.542
  P       64.575     -54.312      61.402
  C       66.492     -55.988      60.835
  O       65.256     -55.412      60.456
  O       65.795     -53.354      61.810
  O       63.427     -53.559      60.817
  H       65.844     -52.589      61.206
  H       66.777     -55.717      61.858
  H       67.269     -55.647      60.149
  H       66.412     -57.076      60.770
  H       57.310     -57.911      65.924
  H       58.920     -58.306      65.373
  H       57.528     -58.885      64.490

 3  4  5  6  7  8  9  10  11  12  23  26  30  31  33  0
 6-311+G(2d,p)
 ****
 35  36  37  38 0
 6-311+G(2d,p)
 ****
 1  2  13  14  15  16  17  18  19  20  21  22  24  25  27  28  29 0
 3-21G
 ****
 32  34  39  40  41  42  43  44  45  46  47  48  49 0
 3-21G
 ****


