%nproc=1
%NoSave
%Mem=1900MB
#P OB98/GEN NMR

erre ene a

0 1
  C      338.409     415.088    -383.469
  O      337.739     413.918    -382.993
  P      338.513     412.909    -382.004
  C      337.147     413.577    -379.911
  O      338.433     413.480    -380.513
  C      337.180     412.949    -378.506
  O      337.960     413.759    -377.581
  C      335.789     412.860    -377.865
  O      334.895     411.933    -378.443
  C      336.129     412.697    -376.398
  O      336.414     411.332    -376.081
  C      337.391     413.568    -376.267
  N      337.123     414.854    -375.606
  C      336.981     414.832    -374.233
  O      337.038     413.798    -373.572
  N      336.751     416.042    -373.632
  C      336.603     417.249    -374.273
  O      336.367     418.298    -373.692
  C      336.735     417.204    -375.741
  C      336.977     416.038    -376.340
  O      339.863     412.464    -382.466
  O      337.508     411.651    -381.943
  H      336.783     411.302    -375.180
  H      338.045     410.832    -381.974
  H      336.648     416.049    -372.631
  H      336.615     418.131    -376.285
  H      337.078     415.978    -377.419
  H      338.156     413.057    -375.670
  H      335.287     413.004    -375.761
  H      335.311     413.841    -377.987
  H      337.654     411.962    -378.567
  H      336.411     413.077    -380.533
  H      336.858     414.626    -379.865
  P      333.314     412.192    -378.564
  C      333.376     413.985    -380.441
  O      333.090     413.693    -379.085
  O      332.448     411.742    -377.424
  O      332.945     411.332    -379.862
  H      332.031     410.980    -379.751
  H      333.190     415.048    -380.617
  H      332.750     413.396    -381.105
  H      334.429     413.782    -380.657
  H      337.753     415.639    -384.109
  H      339.283     414.801    -384.016
  H      338.693     415.699    -382.638

 3  4  5  6  7  8  9  10  11  12  13  23  28  29  30  31  32 0
 6-311+G(2d,p)
 ****
 33  34 0
 6-311+G(2d,p)
 ****
 1  2  14  15  16  17  18  19  20  21  22  24  25  26  27 0
 3-21G
 ****
 35  36  37  38  39  40  41  42  43  44  45 0
 3-21G
 ****


