%nproc=1
%NoSave
%Mem=1900MB
#P OB98/GEN NMR

erre ene a

0 1
  C      -69.991    -541.729     669.491
  O      -70.805    -540.870     670.301
  P      -72.195    -540.350     669.686
  C      -73.369    -542.621     670.181
  O      -73.056    -541.622     669.222
  C      -74.874    -542.620     670.485
  O      -75.629    -543.256     669.432
  C      -75.241    -543.374     671.753
  O      -75.047    -542.569     672.909
  C      -76.721    -543.623     671.529
  O      -77.477    -542.436     671.851
  C      -76.782    -543.899     670.024
  N      -79.529    -547.860     668.289
  C      -79.862    -546.578     668.557
  N      -79.080    -545.588     669.034
  C      -77.827    -546.027     669.222
  C      -77.335    -547.305     668.998
  C      -78.246    -548.255     668.506
  N      -77.905    -549.557     668.236
  N      -76.002    -547.377     669.321
  C      -75.680    -546.164     669.716
  N      -76.750    -545.314     669.682
  O      -71.751    -539.681     668.301
  O      -72.913    -539.376     670.561
  H      -77.467    -542.353     672.827
  H      -72.317    -538.914     668.106
  H      -80.901    -546.311     668.358
  H      -74.692    -545.856     670.032
  H      -77.680    -543.474     669.553
  H      -77.115    -544.425     672.161
  H      -74.698    -544.331     671.814
  H      -75.204    -541.574     670.567
  H      -72.806    -542.442     671.100
  H      -78.606    -550.169     667.859
  H      -76.940    -549.844     668.375
  H      -73.048    -543.590     669.799
  P      -74.973    -543.329     674.329
  C      -72.373    -543.386     674.289
  O      -73.579    -544.125     674.321
  O      -76.076    -544.482     674.177
  O      -75.227    -542.455     675.511
  H      -76.462    -544.693     675.051
  H      -71.547    -544.038     674.593
  H      -72.413    -542.537     674.972
  H      -72.183    -543.025     673.270
  H      -69.104    -541.992     670.029
  H      -69.723    -541.220     668.589
  H      -70.538    -542.616     669.251

 3  4  5  6  7  8  9  10  11  12  22  25  29  30  31  32 0
 6-311+G(2d,p)
 ****
 33  36  37 0
 6-311+G(2d,p)
 ****
 1  2  13  14  15  16  17  18  19  20  21  23  24  26 0
 3-21G
 ****
 27  28  34  35  38  39  40  41  42  43  44  45  46  47  48 0
 3-21G
 ****


