%nproc=1
%NoSave
%Mem=1900MB
#P OB98/GEN NMR

erre ene a

0 1
  C     -472.511     256.029     297.973
  O     -471.950     254.819     298.443
  H     -471.808     256.844     298.175
  H     -473.447     256.235     298.499
  H     -472.689     255.975     296.895
  P     -472.741     253.466     298.078
  C     -470.462     252.233     297.673
  O     -471.703     252.275     298.352
  C     -469.494     251.286     298.384
  O     -468.963     251.957     299.554
  C     -470.138     249.976     298.845
  O     -469.184     248.920     298.682
  C     -470.404     250.212     300.320
  O     -470.492     248.987     301.046
  C     -469.233     251.125     300.706
  N     -469.519     251.934     301.889
  C     -469.512     251.269     303.121
  O     -469.287     250.061     303.172
  N     -469.796     251.983     304.256
  C     -470.133     253.236     304.167
  N     -470.426     253.879     305.330
  C     -470.210     253.962     302.882
  C     -469.881     253.261     301.799
  O     -472.812     253.555     296.481
  O     -474.065     253.332     298.751
  H     -469.631     248.513     300.956
  H     -471.989     253.869     296.071
  H     -470.511     255.000     302.858
  H     -469.901     253.719     300.816
  H     -468.328     250.530     300.904
  H     -471.354     250.745     300.447
  H     -471.053     249.731     298.307
  H     -468.641     251.092     297.720
  H     -470.382     253.339     306.187
  H     -470.020     253.236     297.622
  H     -470.746     254.835     305.375
  H     -470.645     251.889     296.648
  P     -469.292     247.963     297.402
  C     -466.746     247.634     297.148
  O     -468.002     247.006     297.356
  O     -469.626     248.633     296.112
  O     -470.459     246.936     297.822
  H     -470.996     246.755     297.028
  H     -465.974     246.893     297.138
  H     -466.561     248.331     297.938
  H     -466.756     248.151     296.211

 6  7  8  9  10  11  12  13  14  15  16  26  30  31  32  33  35 0
 6-311+G(2d,p)
 ****
 37  38 0
 6-311+G(2d,p)
 ****
 1  2  3  4  5  17  18  19  20  21  22  23  24  25 0
 3-21G
 ****
 27  28  29  34  36  39  40  41  42  43  44  45  46 0
 3-21G
 ****


