%nproc=1
%NoSave
%Mem=1900MB
#P OB98/GEN NMR

erre ene a

0 1
  C       88.317    -167.012      55.031
  O       87.497    -166.838      53.897
  H       88.023    -167.935      55.536
  H       88.178    -166.175      55.721
  H       89.370    -167.086      54.751
  P       87.914    -165.747      52.802
  C       89.840    -167.053      51.686
  O       88.521    -166.544      51.550
  C       90.728    -166.579      50.529
  O       92.079    -167.061      50.745
  C       90.258    -167.154      49.189
  O       90.595    -166.307      48.094
  C       91.057    -168.443      49.080
  O       91.197    -168.903      47.736
  C       92.375    -168.039      49.735
  N       96.739    -170.663      49.971
  C       96.356    -169.683      49.076
  N       97.259    -169.358      48.120
  N       95.190    -169.094      49.101
  C       94.365    -169.568      50.065
  C       94.621    -170.550      50.994
  C       95.928    -171.171      50.978
  O       96.310    -172.059      51.733
  N       93.535    -170.767      51.805
  C       92.624    -169.924      51.365
  N       93.088    -169.156      50.326
  O       89.215    -165.057      53.435
  O       86.863    -164.734      52.465
  H       91.618    -169.781      47.770
  H       89.351    -164.173      53.049
  H       97.659    -171.064      49.926
  H       91.626    -169.818      51.771
  H       93.044    -167.572      49.002
  H       90.526    -169.222      49.633
  H       98.076    -169.923      47.950
  H       89.190    -167.353      49.167
  H       96.888    -168.887      47.291
  H       90.780    -165.485      50.519
  H       89.763    -168.142      51.689
  H       90.265    -166.755      52.645
  P       89.418    -165.781      47.143
  C       88.984    -163.231      47.700
  O       89.586    -164.214      46.889
  O       88.115    -165.882      48.061
  O       89.265    -166.549      45.867
  H       87.491    -166.536      47.695
  H       89.241    -162.259      47.333
  H       89.333    -163.336      48.706
  H       87.921    -163.351      47.677

 6  7  8  9  10  11  12  13  14  15  26  29  33  34 0
 6-311+G(2d,p)
 ****
 36  38  39  40  41 0
 6-311+G(2d,p)
 ****
 1  2  3  4  5  16  17  18  19  20  21  22  23  24  25 0
 3-21G
 ****
 27  28  30  31  32  35  37  42  43  44  45  46  47 0
 3-21G
 ****
 48  49 0
 3-21G
 ****


