%nproc=1
%NoSave
%Mem=1900MB
#P OB98/GEN NMR

erre ene a

0 1
  C      215.328     484.898    -764.347
  O      214.325     485.809    -763.941
  H      215.430     484.954    -765.438
  H      215.035     483.882    -764.077
  H      216.282     485.152    -763.890
  P      214.133     486.018    -762.361
  C      211.800     484.815    -762.324
  O      213.145     484.840    -761.890
  C      210.937     483.988    -761.353
  O      211.087     484.542    -760.014
  C      209.442     483.997    -761.699
  O      208.899     482.709    -761.376
  C      208.873     485.042    -760.759
  O      207.479     484.849    -760.533
  C      209.772     484.854    -759.520
  N      209.784     486.038    -758.664
  C      208.725     486.163    -757.748
  O      207.836     485.305    -757.710
  N      208.677     487.270    -756.944
  C      209.574     488.201    -757.068
  N      209.455     489.284    -756.258
  C      210.669     488.129    -758.054
  C      210.736     487.028    -758.794
  O      213.219     487.329    -762.309
  O      215.416     486.119    -761.599
  H      207.114     485.677    -760.132
  H      212.490     487.317    -762.949
  H      211.392     488.948    -758.129
  H      211.512     486.893    -759.530
  H      209.426     483.992    -758.924
  H      209.016     486.044    -761.181
  H      209.255     484.224    -762.762
  H      211.331     482.971    -761.327
  H      208.667     489.303    -755.610
  H      211.734     484.382    -763.329
  H      210.058     490.097    -756.304
  H      211.437     485.841    -762.375
  P      208.950     481.528    -762.452
  C      206.589     482.129    -763.329
  O      207.953     481.888    -763.664
  O      208.827     480.151    -761.920
  O      210.399     481.743    -763.133
  H      210.791     480.863    -763.273
  H      206.038     482.356    -764.218
  H      206.529     482.955    -762.652
  H      206.176     481.257    -762.866

 6  7  8  9  10  11  12  13  14  15  16  26  30  31  32  33  35 0
 6-311+G(2d,p)
 ****
 37  38 0
 6-311+G(2d,p)
 ****
 1  2  3  4  5  17  18  19  20  21  22  23  24  25 0
 3-21G
 ****
 27  28  29  34  36  39  40  41  42  43  44  45  46 0
 3-21G
 ****


