%nproc=1
%NoSave
%Mem=1900MB
#P OB98/GEN NMR

erre ene a

0 1
  C     -160.104     347.569     259.103
  O     -158.780     348.041     259.287
  P     -157.904     348.392     257.991
  C     -156.547     346.143     257.830
  O     -156.549     347.537     258.105
  C     -155.570     345.832     256.695
  O     -155.573     344.392     256.448
  C     -155.910     346.520     255.353
  O     -154.660     346.838     254.715
  C     -156.635     345.425     254.588
  O     -156.619     345.636     253.185
  C     -155.861     344.185     255.052
  N     -156.600     342.936     254.863
  C     -156.196     342.093     253.830
  O     -155.268     342.344     253.053
  N     -156.920     340.933     253.693
  C     -158.021     340.574     254.419
  O     -158.638     339.527     254.242
  C     -158.427     341.525     255.465
  C     -157.701     342.636     255.645
  O     -157.447     349.887     258.325
  O     -158.642     348.232     256.702
  H     -157.275     350.032     259.277
  H     -155.775     345.283     252.837
  H     -156.624     340.290     252.975
  H     -159.308     341.290     256.059
  H     -157.987     343.357     256.406
  H     -154.895     344.127     254.526
  H     -157.686     345.391     254.913
  H     -156.500     347.428     255.488
  H     -154.556     346.104     257.017
  H     -157.553     345.832     257.532
  H     -156.274     345.598     258.740
  P     -154.207     348.383     254.662
  C     -156.007     349.428     253.068
  O     -154.679     348.972     253.256
  O     -152.621     348.200     254.467
  O     -154.551     349.178     255.883
  H     -152.396     347.569     253.762
  H     -156.044     350.079     252.192
  H     -156.376     349.977     253.934
  H     -156.658     348.564     252.885
  H     -160.552     347.382     260.057
  H     -160.084     346.663     258.534
  H     -160.676     348.306     258.579

 3  4  5  6  7  8  9  10  11  12  13  24  28  29  30  31  32 0
 6-311+G(2d,p)
 ****
 33  34 0
 6-311+G(2d,p)
 ****
 1  2  14  15  16  17  18  19  20  21  22  23  25  26  27 0
 3-21G
 ****
 35  36  37  38  39  40  41  42  43  44  45 0
 3-21G
 ****


