%nproc=1
%NoSave
%Mem=1900MB
#P OB98/GEN NMR

erre ene a

0 1
  C     -323.135     -31.116     431.639
  O     -324.151     -31.714     432.423
  H     -322.169     -31.536     431.933
  H     -323.103     -30.035     431.801
  H     -323.303     -31.324     430.579
  P     -325.645     -31.149     432.289
  C     -325.580     -29.960     434.588
  O     -325.680     -29.814     433.174
  C     -324.626     -28.916     435.157
  O     -323.292     -29.129     434.652
  C     -324.992     -27.488     434.766
  O     -326.094     -27.026     435.520
  C     -323.678     -26.777     435.015
  O     -323.499     -26.486     436.408
  C     -322.656     -27.835     434.536
  N     -322.196     -27.600     433.171
  C     -320.875     -27.158     433.036
  O     -320.168     -26.992     434.031
  N     -320.404     -26.888     431.775
  C     -321.170     -27.061     430.743
  N     -320.638     -26.781     429.523
  C     -322.561     -27.541     430.841
  C     -323.006     -27.783     432.072
  O     -326.758     -32.108     432.573
  O     -325.702     -30.591     430.790
  H     -322.569     -26.203     436.504
  H     -325.993     -31.291     430.174
  H     -323.160     -27.679     429.953
  H     -324.020     -28.139     432.235
  H     -321.782     -27.852     435.195
  H     -323.624     -25.836     434.472
  H     -325.208     -27.439     433.692
  H     -324.598     -29.030     436.247
  H     -319.681     -26.443     429.504
  H     -325.198     -30.968     434.784
  H     -321.107     -26.963     428.648
  H     -326.567     -29.867     435.057
  P     -327.409     -26.473     434.787
  C     -327.306     -24.538     436.492
  O     -327.455     -24.903     435.121
  O     -328.664     -27.230     435.081
  O     -327.003     -26.500     433.238
  H     -326.995     -27.420     432.883
  H     -327.354     -23.473     436.585
  H     -326.361     -24.885     436.853
  H     -328.092     -24.982     437.067

 6  7  8  9  10  11  12  13  14  15  16  26  30  31  32  33  35 0
 6-311+G(2d,p)
 ****
 37  38 0
 6-311+G(2d,p)
 ****
 1  2  3  4  5  17  18  19  20  21  22  23  24  25 0
 3-21G
 ****
 27  28  29  34  36  39  40  41  42  43  44  45  46 0
 3-21G
 ****


