%nproc=1
%NoSave
%Mem=1900MB
#P OB98/GEN NMR

erre ene a

0 1
  C     -183.760    -895.690     -43.997
  O     -183.221    -894.830     -43.004
  P     -183.428    -895.030     -41.432
  C     -180.828    -894.910     -41.134
  O     -182.055    -895.550     -40.812
  C     -179.826    -894.890     -39.960
  O     -180.409    -894.180     -38.844
  C     -179.513    -896.290     -39.474
  O     -178.561    -897.100     -40.134
  C     -179.289    -896.150     -37.978
  O     -177.909    -896.010     -37.661
  C     -180.055    -894.860     -37.639
  N     -182.034    -896.030     -33.048
  C     -180.702    -895.920     -33.430
  N     -179.780    -896.210     -32.492
  N     -180.320    -895.580     -34.632
  C     -181.359    -895.400     -35.500
  C     -182.701    -895.490     -35.251
  C     -183.128    -895.790     -33.888
  O     -184.278    -895.880     -33.513
  N     -183.455    -895.260     -36.387
  C     -182.529    -895.060     -37.330
  N     -181.238    -895.130     -36.831
  O     -184.669    -895.750     -41.019
  O     -183.532    -893.500     -40.874
  H     -177.527    -895.350     -38.286
  H     -184.157    -893.540     -40.110
  H     -182.279    -896.240     -32.105
  H     -182.764    -894.850     -38.366
  H     -179.443    -894.190     -37.047
  H     -179.642    -897.050     -37.441
  H     -179.997    -896.600     -31.596
  H     -180.464    -896.890     -39.573
  H     -178.825    -896.370     -32.801
  H     -178.919    -894.320     -40.250
  H     -181.071    -893.890     -41.457
  H     -180.368    -895.410     -42.011
  P     -178.794    -898.560     -40.780
  C     -178.200    -897.680     -43.104
  O     -179.150    -898.340     -42.318
  O     -180.191    -899.030     -40.141
  O     -177.710    -899.560     -40.492
  H     -180.297    -900.000     -40.255
  H     -178.674    -897.340     -44.025
  H     -177.387    -898.360     -43.361
  H     -177.800    -896.810     -42.572
  H     -183.476    -895.337     -44.967
  H     -184.827    -895.700     -43.919
  H     -183.383    -896.681     -43.854

 3  4  5  6  7  8  9  10  11  12  23  26  30  31 0
 6-311+G(2d,p)
 ****
 33  35  36  37  38 0
 6-311+G(2d,p)
 ****
 1  2  13  14  15  16  17  18  19  20  21  22  24  25 0
 3-21G
 ****
 27  28  29  32  34  39  40  41  42  43  44  45  46  47  48  49 0
 3-21G
 ****


