%nproc=1
%NoSave
%Mem=1900MB
#P OB98/GEN NMR

erre ene a

0 1
  C      -80.621      80.265     219.212
  O      -80.550      79.060     219.981
  P      -79.115      78.714     220.624
  C      -79.704      79.512     223.023
  O      -78.884      79.693     221.880
  C      -78.932      78.807     224.139
  O      -77.759      79.541     224.543
  C      -79.750      78.594     225.404
  O      -80.611      77.477     225.250
  C      -78.659      78.380     226.446
  O      -78.218      77.007     226.466
  C      -77.534      79.301     225.958
  N      -75.570      81.713     229.967
  C      -75.582      80.359     229.658
  N      -74.961      79.547     230.537
  N      -76.145      79.865     228.592
  C      -76.731      80.804     227.811
  C      -76.767      82.168     227.998
  C      -76.134      82.705     229.181
  O      -76.082      83.889     229.484
  N      -77.403      82.804     226.957
  C      -77.862      81.809     226.213
  N      -77.427      80.577     226.648
  O      -78.076      79.249     219.518
  O      -78.922      77.261     220.894
  H      -78.932      76.450     226.839
  H      -77.640      78.493     219.083
  H      -75.125      82.038     230.806
  H      -78.481      81.922     225.333
  H      -76.551      78.826     226.048
  H      -79.021      78.597     227.460
  H      -74.494      79.857     231.373
  H      -80.320      79.503     225.636
  H      -74.937      78.548     230.320
  H      -78.604      77.840     223.739
  H      -80.592      78.923     222.758
  H      -80.066      80.496     223.353
  P      -82.149      77.753     224.908
  C      -82.212      76.069     222.923
  O      -82.365      77.413     223.365
  O      -82.257      79.355     224.980
  O      -83.119      77.108     225.849
  H      -83.068      79.609     225.460
  H      -82.862      75.902     222.060
  H      -82.480      75.360     223.715
  H      -81.181      75.916     222.624
  H      -81.615      80.391     218.837
  H      -79.936      80.206     218.392
  H      -80.365      81.099     219.832

 3  4  5  6  7  8  9  10  11  12  23  26  30  31 0
 6-311+G(2d,p)
 ****
 33  35  36  37  38 0
 6-311+G(2d,p)
 ****
 1  2  13  14  15  16  17  18  19  20  21  22  24  25 0
 3-21G
 ****
 27  28  29  32  34  39  40  41  42  43  44  45  46  47  48  49 0
 3-21G
 ****


