%nproc=1
%NoSave
%Mem=1900MB
#P OB98/GEN NMR

erre ene a

0 1
  C      515.139    1008.788     509.067
  O      516.265    1008.895     508.186
  P      516.604    1007.697     507.195
  C      518.644    1006.660     508.396
  O      518.181    1007.382     507.261
  C      520.074    1007.111     508.790
  O      521.008    1006.819     507.703
  C      520.148    1008.615     509.067
  O      520.770    1008.923     510.317
  C      520.834    1009.187     507.833
  O      521.497    1010.415     508.074
  C      521.719    1008.012     507.384
  N      522.050    1008.090     505.957
  C      523.376    1008.391     505.637
  O      524.239    1008.671     506.498
  N      523.663    1008.432     504.307
  C      522.784    1008.287     503.277
  O      523.080    1008.377     502.083
  C      521.385    1008.035     503.666
  C      521.084    1007.952     504.978
  O      516.039    1007.812     505.814
  O      515.980    1006.412     507.961
  H      521.864    1010.748     507.212
  H      515.579    1005.824     507.274
  H      524.619    1008.631     504.031
  H      520.642    1007.950     502.887
  H      520.065    1007.786     505.302
  H      522.677    1008.000     507.938
  H      520.072    1009.373     507.067
  H      519.147    1009.072     509.171
  H      520.359    1006.538     509.673
  H      518.666    1005.593     508.147
  H      517.931    1006.768     509.215
  P      520.144    1008.611     511.766
  C      520.542    1011.004     512.694
  O      520.794    1009.598     512.819
  O      520.131    1007.173     512.166
  O      518.623    1009.135     511.634
  H      518.017    1008.511     512.066
  H      521.306    1011.535     513.228
  H      519.568    1011.225     513.144
  H      520.548    1011.310     511.649
  H      515.062    1009.678     509.657
  H      515.269    1007.943     509.711
  H      514.246    1008.663     508.491

 3  4  5  6  7  8  9  10  11  12  13  23  28  29  30  31  32 0
 6-311+G(2d,p)
 ****
 33  34 0
 6-311+G(2d,p)
 ****
 1  2  14  15  16  17  18  19  20  21  22  24  25  26  27 0
 3-21G
 ****
 35  36  37  38  39  40  41  42  43  44  45 0
 3-21G
 ****


