%nproc=1
%NoSave
%Mem=1900MB
#P OB98/GEN NMR

erre ene a

0 1
  C      301.324      77.306     579.345
  O      301.973      76.054     579.263
  H      301.553      77.881     578.444
  H      301.679      77.864     580.216
  H      300.243      77.164     579.409
  P      301.854      75.090     580.539
  C      300.112      73.419     579.578
  O      300.382      74.458     580.508
  C      300.207      72.067     580.281
  O      299.304      72.041     581.413
  C      299.801      70.885     579.413
  O      300.823      70.489     578.514
  C      299.522      69.833     580.471
  O      300.722      69.162     580.881
  C      298.928      70.665     581.624
  N      297.480      70.499     581.719
  C      297.046      69.353     582.381
  O      297.813      68.521     582.862
  N      295.693      69.174     582.436
  C      294.754      69.982     581.864
  O      293.555      69.732     581.904
  C      295.271      71.168     581.164
  C      296.591      71.368     581.120
  O      301.806      76.114     581.767
  O      302.959      74.096     580.681
  H      302.655      76.097     582.244
  H      300.436      68.447     581.484
  H      295.358      68.351     582.912
  H      294.554      71.831     580.696
  H      296.997      72.230     580.601
  H      299.370      70.362     582.581
  H      298.839      69.076     580.097
  H      298.869      71.110     578.878
  H      301.232      71.940     580.654
  H      300.848      73.449     578.768
  H      299.116      73.572     579.152
  P      300.420      69.506     577.309
  C      300.095      71.328     575.440
  O      299.513      70.381     576.320
  O      299.391      68.536     578.055
  O      301.593      68.831     576.688
  H      298.958      68.977     578.807
  H      299.326      71.804     574.869
  H      300.774      70.831     574.779
  H      300.625      72.064     576.008

 6  7  8  9  10  11  12  13  14  15  16  27  31  32  33  34  35 0
 6-311+G(2d,p)
 ****
 36  37 0
 6-311+G(2d,p)
 ****
 1  2  3  4  5  17  18  19  20  21  22  23  24  25 0
 3-21G
 ****
 26  28  29  30  38  39  40  41  42  43  44  45 0
 3-21G
 ****


