%nproc=1
%NoSave
%Mem=1900MB
#P OB98/GEN NMR

erre ene a

0 1
  C     1074.435     730.618    -419.619
  O     1073.374     729.691    -419.699
  P     1073.618     728.234    -419.030
  C     1071.147     728.295    -418.252
  O     1072.180     727.560    -418.893
  C     1070.324     727.378    -417.330
  O     1069.326     726.672    -418.097
  C     1071.151     726.300    -416.584
  O     1070.542     726.087    -415.303
  C     1070.988     725.063    -417.453
  O     1071.268     723.865    -416.750
  C     1069.546     725.250    -417.903
  N     1069.070     720.675    -420.009
  C     1069.449     721.005    -418.728
  N     1069.694     719.998    -417.892
  N     1069.596     722.243    -418.318
  C     1069.302     723.154    -419.281
  C     1068.946     722.932    -420.587
  C     1068.749     721.586    -421.030
  O     1068.333     721.215    -422.112
  N     1068.805     724.145    -421.292
  C     1069.026     725.058    -420.363
  N     1069.291     724.515    -419.132
  O     1074.027     728.591    -417.538
  O     1074.622     727.365    -419.749
  H     1070.984     723.115    -417.303
  H     1075.021     728.633    -417.447
  H     1068.946     719.718    -420.271
  H     1068.986     726.112    -420.555
  H     1068.825     724.895    -417.154
  H     1071.665     725.139    -418.305
  H     1069.576     719.029    -418.113
  H     1072.196     726.604    -416.448
  H     1069.972     720.219    -416.927
  H     1069.793     728.011    -416.601
  H     1070.450     728.688    -418.995
  H     1071.569     729.158    -417.688
  P     1071.438     725.548    -414.107
  C     1070.823     727.170    -412.200
  O     1070.689     725.876    -412.735
  O     1072.694     726.510    -414.096
  O     1071.883     724.115    -414.270
  H     1073.489     726.027    -413.814
  H     1069.978     727.390    -411.523
  H     1070.858     727.936    -412.964
  H     1071.764     727.225    -411.638
  H     1074.147     731.532    -420.095
  H     1075.297     730.217    -420.110
  H     1074.666     730.808    -418.592

 3  4  5  6  7  8  9  10  11  12  23  26  30  31 0
 6-311+G(2d,p)
 ****
 33  35  36  37  38 0
 6-311+G(2d,p)
 ****
 1  2  13  14  15  16  17  18  19  20  21  22  24  25 0
 3-21G
 ****
 27  28  29  32  34  39  40  41  42  43  44  45  46  47  48  49 0
 3-21G
 ****


