%nproc=1
%NoSave
%Mem=1900MB
#P OB98/GEN NMR

erre ene a

0 1
  C     -130.115    -553.858     -94.681
  O     -128.936    -553.329     -94.109
  H     -130.946    -553.180     -94.464
  H     -130.336    -554.838     -94.246
  H     -130.005    -553.946     -95.764
  P     -127.591    -554.176     -94.335
  C     -125.911    -554.359     -96.317
  O     -126.922    -553.600     -95.675
  C     -124.971    -553.437     -97.105
  O     -125.776    -552.570     -97.961
  C     -124.116    -552.514     -96.219
  O     -122.895    -552.236     -96.923
  C     -124.973    -551.255     -96.168
  O     -124.237    -550.161     -95.677
  C     -125.437    -551.205     -97.622
  N     -127.262    -546.452     -97.105
  C     -126.044    -546.981     -96.851
  N     -125.631    -548.255     -97.023
  C     -126.613    -549.012     -97.543
  C     -127.900    -548.610     -97.868
  C     -128.219    -547.261     -97.625
  N     -129.459    -546.716     -97.881
  N     -128.630    -549.673     -98.377
  C     -127.791    -550.695     -98.360
  N     -126.570    -550.342     -97.855
  O     -128.135    -555.619     -94.766
  O     -126.676    -554.254     -93.156
  H     -124.805    -549.367     -95.583
  H     -128.180    -556.205     -93.988
  H     -125.309    -546.294     -96.443
  H     -128.024    -551.700     -98.687
  H     -124.634    -550.888     -98.296
  H     -125.824    -551.394     -95.493
  H     -123.886    -552.941     -95.242
  H     -124.346    -554.047     -97.770
  H     -126.388    -555.075     -96.997
  H     -125.332    -554.912     -95.569
  H     -129.611    -545.749     -97.665
  H     -130.188    -547.315     -98.250
  P     -121.695    -553.305     -96.865
  C     -121.824    -555.918     -97.015
  O     -122.182    -554.659     -97.574
  O     -121.698    -553.723     -95.317
  O     -120.350    -552.797     -97.272
  H     -120.800    -554.002     -95.048
  H     -122.232    -556.704     -97.615
  H     -122.213    -555.990     -96.021
  H     -120.758    -556.006     -96.989

 6  7  8  9  10  11  12  13  14  15  25  28  32  33  34  35 0
 6-311+G(2d,p)
 ****
 36  37  40 0
 6-311+G(2d,p)
 ****
 1  2  3  4  5  16  17  18  19  20  21  22  23  24 0
 3-21G
 ****
 26  27  29  30  31  38  39 41  42  43  44  45  46  47  48 0
 3-21G
 ****


