%nproc=1
%NoSave
%Mem=1900MB
#P OB98/GEN NMR

erre ene a

0 1
  C       73.541     301.502    -137.007
  O       72.477     300.981    -137.777
  H       74.358     301.774    -137.682
  H       73.905     300.749    -136.304
  H       73.223     302.397    -136.466
  P       71.146     300.502    -137.020
  C       71.975     298.067    -137.341
  O       71.533     299.057    -136.425
  C       72.352     296.790    -136.597
  O       73.431     297.023    -135.670
  C       71.240     296.192    -135.743
  O       70.219     295.555    -136.495
  C       72.042     295.207    -134.913
  O       72.375     294.058    -135.713
  C       73.299     296.053    -134.592
  N       73.208     296.727    -133.298
  C       73.487     295.954    -132.166
  O       73.780     294.764    -132.273
  N       73.390     296.538    -130.925
  C       73.026     297.778    -130.823
  N       72.941     298.303    -129.570
  C       72.705     298.624    -131.988
  C       72.817     298.044    -133.182
  O       69.884     300.551    -137.819
  O       71.098     301.393    -135.691
  H       72.905     293.467    -135.149
  H       70.283     301.142    -135.189
  H       72.375     299.645    -131.848
  H       72.591     298.600    -134.083
  H       74.204     295.427    -134.604
  H       71.510     294.844    -134.034
  H       70.814     296.946    -135.069
  H       72.716     296.069    -137.341
  H       73.169     297.699    -128.791
  H       72.831     298.467    -137.892
  H       72.594     299.237    -129.391
  H       71.176     297.829    -138.050
  P       68.710     295.715    -135.957
  C       68.786     293.352    -134.843
  O       68.585     294.749    -134.684
  O       67.847     294.988    -137.088
  O       68.270     297.122    -135.706
  H       67.465     295.644    -137.705
  H       68.665     292.864    -133.898
  H       69.774     293.174    -135.213
  H       68.070     292.965    -135.538

 6  7  8  9  10  11  12  13  14  15  16  26  30  31  32  33  35 0
 6-311+G(2d,p)
 ****
 37  38 0
 6-311+G(2d,p)
 ****
 1  2  3  4  5  17  18  19  20  21  22  23  24  25 0
 3-21G
 ****
 27  28  29  34  36  39  40  41  42  43  44  45  46 0
 3-21G
 ****


