%nproc=1
%NoSave
%Mem=1900MB
#P OB98/GEN NMR

erre ene a

0 1
  C     -162.972     -30.599      88.885
  O     -162.576     -30.989      90.183
  H     -162.560     -29.609      88.677
  H     -164.063     -30.545      88.812
  H     -162.583     -31.301      88.142
  P     -163.152     -32.365      90.775
  C     -165.596     -33.038      91.319
  O     -164.639     -31.991      91.262
  C     -167.007     -32.463      91.406
  O     -167.362     -31.775      90.188
  C     -168.112     -33.498      91.601
  O     -168.161     -34.028      92.915
  C     -169.329     -32.650      91.270
  O     -169.626     -31.782      92.378
  C     -168.811     -31.842      90.056
  N     -169.180     -32.438      88.774
  C     -170.409     -32.046      88.228
  O     -171.125     -31.238      88.820
  N     -170.819     -32.607      87.043
  C     -170.074     -33.496      86.461
  N     -170.548     -34.056      85.313
  C     -168.765     -33.925      86.989
  C     -168.385     -33.368      88.138
  O     -162.302     -33.056      91.791
  O     -163.454     -33.260      89.481
  H     -168.828     -31.246      92.541
  H     -163.803     -34.129      89.797
  H     -168.190     -34.675      86.469
  H     -167.443     -33.645      88.598
  H     -169.184     -30.811      90.087
  H     -170.226     -33.242      91.071
  H     -168.031     -34.300      90.859
  H     -167.008     -31.714      92.210
  H     -171.468     -33.769      85.003
  H     -165.371     -33.660      92.190
  H     -170.176     -34.931      84.960
  H     -165.531     -33.657      90.418
  P     -169.214     -35.207      93.210
  C     -171.814     -35.356      93.313
  O     -170.666     -34.525      93.253
  O     -168.921     -35.571      94.738
  O     -169.126     -36.397      92.307
  H     -168.291     -36.315      94.809
  H     -172.694     -34.748      93.335
  H     -171.773     -35.957      94.197
  H     -171.841     -35.990      92.452

 6  7  8  9  10  11  12  13  14  15  16  26  30  31  32  33  35 0
 6-311+G(2d,p)
 ****
 37  38 0
 6-311+G(2d,p)
 ****
 1  2  3  4  5  17  18  19  20  21  22  23  24  25 0
 3-21G
 ****
 27  28  29  34  36  39  40  41  42  43  44  45  46 0
 3-21G
 ****


