%nproc=1
%NoSave
%Mem=1900MB
#P OB98/GEN NMR

erre ene a

0 1
  C      162.319    -532.930     420.941
  O      162.446    -532.084     422.065
  P      161.432    -532.113     423.301
  C      158.854    -532.195     423.562
  O      159.947    -531.825     422.743
  C      157.565    -532.452     422.769
  O      157.804    -533.506     421.808
  C      156.452    -532.970     423.691
  O      155.672    -532.049     424.433
  C      155.661    -533.961     422.860
  O      154.480    -533.390     422.301
  C      156.644    -534.355     421.748
  N      156.261    -538.962     419.648
  C      155.879    -537.729     419.133
  N      155.159    -537.773     417.991
  N      156.190    -536.583     419.694
  C      156.849    -536.716     420.878
  C      157.285    -537.875     421.482
  C      156.981    -539.130     420.828
  O      157.210    -540.243     421.302
  N      157.840    -537.631     422.708
  C      157.719    -536.328     422.857
  N      157.080    -535.738     421.795
  O      161.875    -531.408     424.540
  O      161.373    -533.690     423.634
  H      153.931    -534.113     421.941
  H      161.271    -533.786     424.600
  H      155.937    -539.813     419.224
  H      158.026    -535.764     423.737
  H      156.186    -534.194     420.754
  H      155.333    -534.812     423.471
  H      154.780    -538.621     417.622
  H      156.943    -533.576     424.477
  H      154.729    -536.906     417.685
  H      157.271    -531.574     422.179
  H      158.688    -531.379     424.285
  H      159.099    -533.088     424.143
  P      154.889    -532.347     425.800
  C      153.528    -534.369     426.593
  O      153.791    -533.475     425.517
  O      153.998    -531.044     426.045
  O      155.771    -532.603     426.983
  H      153.767    -530.964     426.993
  H      153.005    -535.252     426.205
  H      152.885    -533.887     427.327
  H      154.467    -534.678     427.077
  H      163.111    -532.727     420.250
  H      161.377    -532.753     420.466
  H      162.373    -533.951     421.255

 3  4  5  6  7  8  9  10  11  12  23  26  30  31 0
 6-311+G(2d,p)
 ****
 33  35  36  37  38 0
 6-311+G(2d,p)
 ****
 1  2  13  14  15  16  17  18  19  20  21  22  24  25 0
 3-21G
 ****
 27  28  29  32  34  39  40  41  42  43  44  45  46  47  48  49 0
 3-21G
 ****


