%nproc=1
%NoSave
%Mem=1900MB
#P OB98/GEN NMR

erre ene a

0 1
  C     -424.885      97.955     461.350
  O     -426.071      97.492     462.012
  P     -426.353      95.950     462.347
  C     -428.138      95.804     460.475
  O     -426.948      95.252     461.025
  C     -428.716      94.891     459.389
  O     -429.109      93.622     459.963
  C     -429.973      95.398     458.708
  O     -429.711      96.465     457.811
  C     -430.490      94.125     458.042
  O     -429.851      93.906     456.778
  C     -430.056      93.034     459.045
  N     -431.184      92.445     459.754
  C     -431.930      91.481     459.062
  O     -431.674      91.226     457.884
  N     -432.952      90.845     459.725
  C     -433.268      91.215     460.927
  N     -434.278      90.538     461.535
  C     -432.597      92.319     461.639
  C     -431.577      92.880     461.000
  O     -427.191      95.732     463.567
  O     -424.905      95.280     462.520
  H     -424.972      94.503     463.102
  H     -430.223      94.555     456.152
  H     -432.923      92.623     462.627
  H     -431.013      93.693     461.459
  H     -429.509      92.243     458.524
  H     -431.566      94.164     457.860
  H     -430.692      95.728     459.472
  H     -427.920      94.704     458.647
  H     -434.713      89.780     461.026
  H     -427.889      96.776     460.025
  H     -434.589      90.728     462.481
  H     -428.864      95.966     461.278
  P     -430.253      97.916     458.228
  C     -432.152      97.890     456.456
  O     -431.798      97.989     457.826
  O     -429.533      98.897     457.173
  O     -429.946      98.313     459.631
  H     -429.277      99.722     457.627
  H     -433.167      97.477     456.387
  H     -431.465      97.239     455.911
  H     -432.146      98.886     456.005
  H     -424.930      99.018     461.241
  H     -424.815      97.500     460.384
  H     -424.026      97.692     461.931

 3  4  5  6  7  8  9  10  11  12  13  24  27  28  29  30  32 0
 6-311+G(2d,p)
 ****
 34  35 0
 6-311+G(2d,p)
 ****
 1  2  14  15  16  17  18  19  20  21  22  23  25  26 0
 3-21G
 ****
 31  33  36  37  38  39  40  41  42  43  44  45  46 0
 3-21G
 ****


