%nproc=1
%NoSave
%Mem=1900MB
#P OB98/GEN NMR

erre ene a

0 1
  C      311.927      70.484     171.267
  O      311.849      69.772     170.032
  P      311.978      70.590     168.660
  C      310.647      68.732     167.474
  O      311.804      69.560     167.443
  C      310.808      67.539     166.531
  O      311.159      67.957     165.197
  C      311.910      66.582     166.957
  O      311.505      65.803     168.068
  C      312.144      65.805     165.669
  O      311.179      64.751     165.519
  C      311.916      66.887     164.591
  N      313.151      67.378     163.999
  C      313.454      66.895     162.721
  O      312.716      66.074     162.177
  N      314.594      67.345     162.100
  C      315.365      68.194     162.705
  N      316.478      68.608     162.042
  C      315.088      68.718     164.058
  C      313.980      68.267     164.642
  O      313.157      71.500     168.559
  O      310.604      71.418     168.611
  H      311.460      64.239     164.734
  H      310.758      72.254     168.129
  H      315.759      69.430     164.518
  H      313.703      68.597     165.636
  H      311.292      66.489     163.780
  H      313.134      65.340     165.649
  H      312.814      67.150     167.213
  H      309.848      67.005     166.487
  H      316.650      68.225     161.122
  H      309.771      69.319     167.184
  H      317.113      69.303     162.408
  H      310.478      68.399     168.504
  P      312.401      65.876     169.394
  C      312.334      63.335     169.899
  O      311.997      64.639     170.326
  O      311.790      67.139     170.170
  O      313.866      66.049     169.152
  H      312.499      67.600     170.654
  H      312.283      62.661     170.759
  H      313.345      63.299     169.485
  H      311.617      62.998     169.145
  H      311.824      69.798     172.081
  H      311.142      71.210     171.310
  H      312.874      70.978     171.335

 3  4  5  6  7  8  9  10  11  12  13  23  27  28  29  30  32 0
 6-311+G(2d,p)
 ****
 34  35 0
 6-311+G(2d,p)
 ****
 1  2  14  15  16  17  18  19  20  21  22  24  25  26 0
 3-21G
 ****
 31  33  36  37  38  39  40  41  42  43  44  45  46 0
 3-21G
 ****


