%nproc=1
%NoSave
%Mem=1900MB
#P OB98/GEN NMR

erre ene a

0 1
  C      209.986    -817.212    -397.321
  O      211.156    -817.440    -396.556
  H      210.241    -817.279    -398.382
  H      209.593    -816.209    -397.118
  H      209.226    -817.967    -397.094
  P      211.051    -817.387    -394.959
  C      212.852    -815.531    -395.114
  O      211.601    -815.926    -394.571
  C      213.431    -814.367    -394.305
  O      212.472    -813.298    -394.159
  C      213.842    -814.714    -392.879
  O      215.028    -815.477    -392.798
  C      214.011    -813.312    -392.310
  O      215.248    -812.750    -392.776
  C      212.791    -812.601    -392.925
  N      211.627    -812.585    -392.029
  C      211.471    -811.451    -391.228
  O      212.286    -810.523    -391.279
  N      210.403    -811.397    -390.351
  C      209.593    -812.404    -390.274
  N      208.561    -812.300    -389.381
  C      209.736    -813.630    -391.081
  C      210.758    -813.658    -391.939
  O      211.682    -818.527    -394.220
  O      209.480    -817.231    -394.660
  H      215.959    -813.314    -392.436
  H      209.358    -817.208    -393.685
  H      209.045    -814.454    -390.951
  H      210.926    -814.520    -392.559
  H      213.040    -811.562    -393.197
  H      214.043    -813.300    -391.217
  H      213.018    -815.205    -392.347
  H      214.282    -813.956    -394.880
  H      208.494    -811.455    -388.839
  H      212.694    -815.248    -396.161
  H      207.924    -813.072    -389.195
  H      213.559    -816.364    -395.073
  P      215.106    -816.571    -391.606
  C      217.277    -815.508    -390.600
  O      215.912    -815.868    -390.406
  O      216.133    -817.662    -392.186
  O      213.792    -817.171    -391.198
  H      215.644    -818.424    -392.556
  H      217.657    -815.055    -389.708
  H      217.351    -814.815    -391.412
  H      217.848    -816.384    -390.826

 6  7  8  9  10  11  12  13  14  15  16  26  30  31  32  33  35 0
 6-311+G(2d,p)
 ****
 37  38 0
 6-311+G(2d,p)
 ****
 1  2  3  4  5  17  18  19  20  21  22  23  24  25 0
 3-21G
 ****
 27  28  29  34  36  39  40  41  42  43  44  45  46 0
 3-21G
 ****


