%nproc=1
%NoSave
%Mem=1900MB
#P OB98/GEN NMR

erre ene a

0 1
  C     -112.938    -154.204     -55.298
  O     -111.787    -154.981     -55.563
  P     -111.912    -156.560     -55.796
  C     -110.473    -157.410     -53.844
  O     -110.573    -157.256     -55.256
  C     -109.373    -158.409     -53.492
  O     -109.751    -159.749     -53.885
  C     -108.052    -158.150     -54.196
  O     -107.375    -157.027     -53.663
  C     -107.346    -159.484     -53.991
  O     -106.765    -159.559     -52.681
  C     -108.521    -160.478     -54.115
  N     -108.541    -161.158     -55.402
  C     -107.595    -162.175     -55.573
  O     -106.757    -162.401     -54.702
  N     -107.623    -162.903     -56.739
  C     -108.432    -162.565     -57.691
  N     -108.457    -163.357     -58.796
  C     -109.331    -161.395     -57.609
  C     -109.350    -160.757     -56.440
  O     -112.321    -156.971     -57.172
  O     -113.007    -157.023     -54.720
  H     -113.682    -157.565     -55.172
  H     -106.124    -158.823     -52.620
  H     -109.938    -161.114     -58.458
  H     -109.995    -159.900     -56.281
  H     -108.467    -161.230     -53.320
  H     -106.538    -159.645     -54.714
  H     -108.229    -157.994     -55.268
  H     -109.238    -158.395     -52.402
  H     -107.840    -164.161     -58.808
  H     -111.434    -157.769     -53.463
  H     -109.250    -163.382     -59.432
  H     -110.267    -156.435     -53.390
  P     -107.414    -155.678     -54.528
  C     -104.831    -155.553     -54.666
  O     -106.031    -154.909     -54.283
  O     -108.492    -154.776     -53.759
  O     -107.792    -155.868     -55.961
  H     -109.006    -154.256     -54.404
  H     -104.046    -154.799     -54.764
  H     -104.943    -156.075     -55.621
  H     -104.537    -156.266     -53.891
  H     -112.656    -153.180     -55.172
  H     -113.409    -154.557     -54.404
  H     -113.621    -154.287     -56.117

 3  4  5  6  7  8  9  10  11  12  13  24  27  28  29  30  32 0
 6-311+G(2d,p)
 ****
 34  35 0
 6-311+G(2d,p)
 ****
 1  2  14  15  16  17  18  19  20  21  22  23  25  26 0
 3-21G
 ****
 31  33  36  37  38  39  40  41  42  43  44  45  46 0
 3-21G
 ****


