%nproc=1
%NoSave
%Mem=1900MB
#P OB98/GEN NMR

erre ene a

0 1
  C      414.183     433.712    -173.852
  O      413.255     432.966    -173.048
  P      413.841     432.322    -171.695
  C      414.369     430.047    -172.826
  O      413.670     430.724    -171.789
  C      413.665     428.744    -173.231
  O      413.431     427.942    -172.047
  C      412.308     428.940    -173.922
  O      412.170     427.929    -174.937
  C      411.310     428.615    -172.820
  O      410.039     428.224    -173.342
  C      412.054     427.511    -172.079
  N      408.581     425.140    -169.269
  C      408.857     425.010    -170.620
  N      408.085     424.154    -171.322
  N      409.814     425.680    -171.227
  C      410.524     426.472    -170.390
  C      410.351     426.673    -169.043
  C      409.269     425.963    -168.398
  O      408.929     426.069    -167.212
  N      411.273     427.561    -168.540
  C      412.001     427.907    -169.594
  N      411.582     427.282    -170.736
  O      412.761     432.762    -170.584
  O      415.208     432.808    -171.341
  H      410.163     427.361    -173.788
  H      413.210     433.249    -169.865
  H      407.823     424.611    -168.867
  H      412.815     428.625    -169.584
  H      412.015     426.559    -172.629
  H      411.160     429.502    -172.197
  H      407.380     423.562    -170.913
  H      412.151     429.937    -174.363
  H      408.308     424.017    -172.309
  H      414.347     428.182    -173.881
  H      415.380     429.812    -172.487
  H      414.450     430.719    -173.688
  P      412.709     428.320    -176.408
  C      410.299     428.014    -177.345
  O      411.667     427.670    -177.446
  O      414.013     427.415    -176.566
  O      412.993     429.777    -176.586
  H      414.646     427.838    -177.181
  H      410.117     428.843    -176.666
  H      409.748     427.137    -176.976
  H      409.930     428.278    -178.335
  H      413.681     434.089    -174.719
  H      414.987     433.073    -174.154
  H      414.572     434.529    -173.282

 3  4  5  6  7  8  9  10  11  12  23  26  30  31  33  0
 6-311+G(2d,p)
 ****
 35  36  37  38 0
 6-311+G(2d,p)
 ****
 1  2  13  14  15  16  17  18  19  20  21  22  24  25  27  28  29 0
 3-21G
 ****
 32  34  39  40  41  42  43  44  45  46  47  48  49 0
 3-21G
 ****


