%nproc=1
%NoSave
%Mem=1900MB
#P OB98/GEN NMR

erre ene a

0 1
  C     -100.827      39.520      72.369
  O     -100.467      40.891      72.382
  P     -101.467      41.994      72.978
  C     -100.458      41.970      75.343
  O     -101.603      41.685      74.549
  C     -100.705      43.196      76.222
  O     -101.862      42.947      77.056
  C      -99.537      43.524      77.147
  O      -99.433      44.947      77.273
  C      -99.954      42.959      78.496
  O      -99.309      43.655      79.575
  C     -101.476      43.121      78.434
  N     -106.020      41.602      80.283
  C     -105.681      42.617      79.458
  N     -104.450      42.976      79.028
  C     -103.519      42.127      79.496
  C     -103.715      41.048      80.341
  C     -105.038      40.792      80.745
  N     -105.385      39.747      81.576
  N     -102.515      40.429      80.631
  C     -101.617      41.112      79.956
  N     -102.175      42.143      79.245
  O     -102.765      42.122      72.256
  O     -100.630      43.354      72.948
  H      -98.346      43.516      79.470
  H     -101.207      44.102      72.705
  H     -106.506      43.224      79.097
  H     -100.555      40.913      79.953
  H     -101.788      44.123      78.752
  H      -99.663      41.902      78.554
  H      -98.587      43.108      76.797
  H     -100.942      44.050      75.577
  H      -99.617      42.172      74.675
  H     -106.366      39.568      81.713
  H     -104.684      39.046      81.778
  H     -100.214      41.098      75.958
  P      -97.944      45.525      77.490
  C      -97.215      45.946      75.026
  O      -97.148      45.113      76.163
  O      -97.361      45.094      78.799
  O      -98.200      47.101      77.358
  H      -99.001      47.290      76.820
  H      -96.643      45.482      74.219
  H      -96.769      46.921      75.247
  H      -98.249      46.074      74.703
  H     -100.034      38.947      71.935
  H     -101.718      39.391      71.791
  H     -101.001      39.187      73.371

 3  4  5  6  7  8  9  10  11  12  22  25  29  30  31  32 0
 6-311+G(2d,p)
 ****
 33  36  37 0
 6-311+G(2d,p)
 ****
 1  2  13  14  15  16  17  18  19  20  21  23  24  26 0
 3-21G
 ****
 27  28  34  35  38  39  40  41  42  43  44  45  46  47  48 0
 3-21G
 ****


