%nproc=1
%NoSave
%Mem=1900MB
#P OB98/GEN NMR

erre ene a

0 1
  C      -71.527    -250.457      89.642
  O      -71.946    -249.288      90.364
  P      -72.593    -249.508      91.818
  C      -74.783    -248.086      91.563
  O      -73.470    -248.195      92.101
  C      -75.415    -246.764      91.993
  O      -74.752    -245.644      91.351
  C      -76.886    -246.626      91.626
  O      -77.709    -247.416      92.476
  C      -77.083    -245.123      91.763
  O      -77.266    -244.764      93.144
  C      -75.725    -244.577      91.255
  N      -75.797    -244.039      89.902
  C      -76.054    -242.672      89.804
  O      -76.241    -241.953      90.786
  N      -76.117    -242.164      88.533
  C      -75.974    -242.878      87.378
  O      -76.023    -242.365      86.263
  C      -75.752    -244.323      87.542
  C      -75.678    -244.833      88.774
  O      -71.307    -249.342      92.752
  O      -73.309    -250.813      91.945
  H      -70.676    -248.681      92.420
  H      -77.543    -243.827      93.151
  H      -76.286    -241.175      88.443
  H      -75.662    -244.926      86.647
  H      -75.516    -245.898      88.918
  H      -75.368    -243.780      91.919
  H      -77.956    -244.759      91.210
  H      -77.039    -246.926      90.581
  H      -75.285    -246.660      93.085
  H      -75.402    -248.913      91.920
  H      -74.725    -248.162      90.470
  P      -78.724    -248.439      91.759
  C      -80.863    -247.483      92.919
  O      -79.993    -248.575      92.728
  O      -77.939    -249.826      91.937
  O      -79.029    -248.084      90.339
  H      -77.571    -249.943      92.827
  H      -81.819    -247.858      93.307
  H      -81.052    -246.954      91.983
  H      -80.434    -246.794      93.652
  H      -71.118    -250.165      88.697
  H      -72.368    -251.099      89.483
  H      -70.783    -250.978      90.207

 3  4  5  6  7  8  9  10  11  12  13  24  28  29  30  31  32 0
 6-311+G(2d,p)
 ****
 33  34 0
 6-311+G(2d,p)
 ****
 1  2  14  15  16  17  18  19  20  21  22  23  25  26  27 0
 3-21G
 ****
 35  36  37  38  39  40  41  42  43  44  45 0
 3-21G
 ****


