%nproc=1
%NoSave
%Mem=1900MB
#P OB98/GEN NMR

erre ene a

0 1
  C      547.088     -60.547      56.391
  O      548.016     -61.502      55.912
  P      547.646     -63.059      55.896
  C      547.803     -63.448      58.434
  O      548.383     -63.712      57.155
  C      548.260     -64.501      59.441
  O      547.846     -65.828      59.041
  C      549.775     -64.604      59.587
  O      550.448     -63.495      60.141
  C      549.906     -65.928      60.328
  O      549.680     -65.791      61.726
  C      548.771     -66.760      59.669
  N      549.281     -67.741      58.711
  C      548.830     -69.039      58.891
  O      548.044     -69.376      59.781
  N      549.330     -69.975      58.012
  C      550.250     -69.746      57.047
  O      550.692     -70.624      56.323
  C      550.709     -68.346      56.916
  C      550.205     -67.420      57.739
  O      547.895     -63.755      54.592
  O      546.105     -63.075      56.354
  H      550.255     -65.067      62.043
  H      545.937     -62.701      57.240
  H      549.024     -70.924      58.135
  H      551.427     -68.130      56.137
  H      550.528     -66.391      57.673
  H      548.194     -67.292      60.442
  H      550.905     -66.356      60.199
  H      550.196     -64.745      58.592
  H      547.769     -64.289      60.401
  H      546.717     -63.494      58.344
  H      548.072     -62.441      58.761
  P      551.848     -62.946      59.580
  C      553.264     -64.548      61.068
  O      552.969     -63.210      60.702
  O      551.826     -61.608      58.927
  O      552.210     -64.071      58.494
  H      552.716     -63.641      57.756
  H      554.014     -64.531      61.864
  H      553.669     -65.087      60.216
  H      552.368     -65.035      61.431
  H      547.515     -59.569      56.322
  H      546.851     -60.761      57.412
  H      546.196     -60.589      55.801

 3  4  5  6  7  8  9  10  11  12  13  23  28  29  30  31  32 0
 6-311+G(2d,p)
 ****
 33  34 0
 6-311+G(2d,p)
 ****
 1  2  14  15  16  17  18  19  20  21  22  24  25  26  27 0
 3-21G
 ****
 35  36  37  38  39  40  41  42  43  44  45 0
 3-21G
 ****


