%nproc=1
%NoSave
%Mem=1900MB
#P OB98/GEN NMR

erre ene a

0 1
  C     -275.574     481.702    1753.262
  O     -276.325     480.508    1753.037
  P     -276.730     479.492    1754.224
  C     -279.263     480.069    1754.082
  O     -278.097     480.008    1754.933
  C     -280.476     480.626    1754.883
  O     -280.204     481.997    1755.325
  C     -281.766     480.703    1754.081
  O     -282.353     479.413    1753.929
  C     -282.567     481.704    1754.894
  O     -283.215     481.027    1756.015
  C     -281.482     482.676    1755.399
  N     -281.473     483.930    1754.621
  C     -282.069     485.032    1755.241
  O     -282.658     484.927    1756.319
  N     -282.025     486.251    1754.542
  C     -281.508     486.314    1753.378
  N     -281.494     487.540    1752.779
  C     -280.896     485.165    1752.677
  C     -280.950     484.010    1753.344
  O     -275.610     479.201    1755.185
  O     -277.204     478.144    1753.483
  H     -283.965     480.509    1755.615
  H     -276.986     477.368    1754.048
  H     -280.510     485.231    1751.677
  H     -280.512     483.102    1752.912
  H     -281.637     482.918    1756.451
  H     -283.373     482.183    1754.319
  H     -281.567     481.143    1753.064
  H     -280.625     480.003    1755.778
  H     -281.893     488.303    1753.281
  H     -279.494     479.057    1753.751
  H     -281.090     487.683    1751.851
  H     -279.049     480.722    1753.198
  P     -282.497     478.759    1752.445
  C     -280.784     476.890    1752.981
  O     -281.123     477.955    1752.132
  O     -282.947     479.696    1751.354
  O     -283.542     477.562    1752.672
  H     -284.062     477.436    1751.869
  H     -280.097     476.227    1752.451
  H     -281.709     476.334    1753.289
  H     -280.299     477.269    1753.889
  H     -275.428     482.212    1752.333
  H     -274.624     481.451    1753.685
  H     -276.108     482.338    1753.937

 3  4  5  6  7  8  9  10  11  12  13  23  27  28  29  30  32 0
 6-311+G(2d,p)
 ****
 34  35 0
 6-311+G(2d,p)
 ****
 1  2  14  15  16  17  18  19  20  21  22  24  25  26 0
 3-21G
 ****
 31  33  36  37  38  39  40  41  42  43  44  45  46 0
 3-21G
 ****


