%nproc=1
%NoSave
%Mem=1900MB
#P OB98/GEN NMR

erre ene a

0 1
  C      632.748    -275.394     192.059
  O      631.599    -275.622     191.247
  P      630.611    -276.866     191.395
  C      628.298    -275.804     192.008
  O      629.470    -276.472     192.442
  C      628.080    -274.445     192.705
  O      629.109    -273.518     192.279
  C      626.747    -273.837     192.285
  O      625.550    -274.227     192.937
  C      626.990    -272.333     192.287
  O      626.614    -271.722     193.524
  C      628.501    -272.225     192.078
  N      629.090    -268.113     189.090
  C      628.633    -268.186     190.391
  N      628.235    -267.032     190.960
  N      628.554    -269.300     191.072
  C      628.905    -270.398     190.355
  C      629.357    -270.450     189.055
  C      629.489    -269.204     188.333
  O      629.901    -269.081     187.183
  N      629.591    -271.742     188.661
  C      629.265    -272.468     189.708
  N      628.849    -271.696     190.767
  O      631.270    -278.193     191.576
  O      629.835    -276.898     189.981
  H      625.640    -271.731     193.583
  H      629.645    -277.836     189.791
  H      629.149    -267.224     188.624
  H      629.312    -273.548     189.754
  H      628.956    -271.549     192.815
  H      626.397    -271.846     191.506
  H      628.152    -266.162     190.452
  H      626.588    -274.102     191.233
  H      627.696    -267.112     191.827
  H      628.193    -274.541     193.790
  H      627.458    -276.476     192.213
  H      628.323    -275.662     190.928
  P      624.656    -275.508     192.589
  C      624.016    -276.506     194.863
  O      624.881    -276.597     193.745
  O      625.402    -276.175     191.334
  O      623.230    -275.218     192.267
  H      624.808    -276.803     190.881
  H      624.444    -277.074     195.694
  H      623.043    -276.939     194.609
  H      623.879    -275.462     195.171
  H      633.231    -274.491     191.748
  H      633.426    -276.215     191.956
  H      632.449    -275.305     193.083

 3  4  5  6  7  8  9  10  11  12  23  26  30  31 0
 6-311+G(2d,p)
 ****
 33  35  36  37  38 0
 6-311+G(2d,p)
 ****
 1  2  13  14  15  16  17  18  19  20  21  22  24  25 0
 3-21G
 ****
 27  28  29  32  34  39  40  41  42  43  44  45  46  47  48  49 0
 3-21G
 ****


