%nproc=1
%NoSave
%Mem=1900MB
#P OB98/GEN NMR

erre ene a

0 1
  C     -204.558     386.562      63.722
  O     -204.551     387.646      62.820
  H     -205.419     385.928      63.500
  H     -204.648     386.933      64.747
  H     -203.649     385.962      63.626
  P     -203.236     388.550      62.706
  C     -200.876     388.068      61.775
  O     -202.270     387.847      61.634
  C     -200.092     387.325      60.686
  O     -200.142     385.902      60.961
  C     -200.720     387.535      59.302
  O     -199.756     387.433      58.258
  C     -201.690     386.369      59.195
  O     -202.016     386.033      57.847
  C     -200.930     385.271      59.937
  N     -203.211     380.744      59.384
  C     -202.553     381.513      58.442
  N     -202.490     381.003      57.188
  N     -202.022     382.677      58.700
  C     -202.222     383.094      59.974
  C     -202.879     382.436      60.990
  C     -203.428     381.129      60.701
  O     -204.043     380.419      61.492
  N     -202.885     383.178      62.146
  C     -202.240     384.283      61.828
  N     -201.797     384.272      60.528
  O     -202.470     388.279      64.087
  O     -203.472     390.014      62.486
  H     -202.510     385.196      57.864
  H     -201.860     389.010      64.287
  H     -203.574     379.841      59.142
  H     -202.056     385.112      62.503
  H     -200.242     384.750      59.259
  H     -202.621     386.653      59.692
  H     -203.050     380.210      56.910
  H     -201.237     388.485      59.216
  H     -202.300     381.671      56.438
  H     -199.037     387.618      60.717
  H     -200.594     387.708      62.768
  H     -200.657     389.140      61.748
  P     -199.470     388.723      57.352
  C     -199.313     391.300      57.943
  O     -199.049     389.955      58.278
  O     -200.913     389.133      56.805
  O     -198.494     388.492      56.240
  H     -200.950     389.034      55.836
  H     -198.938     391.940      58.714
  H     -200.369     391.442      57.843
  H     -198.832     391.538      57.017

 6  7  8  9  10  11  12  13  14  15  26  29  33  34 0
 6-311+G(2d,p)
 ****
 36  38  39  40  41 0
 6-311+G(2d,p)
 ****
 1  2  3  4  5  16  17  18  19  20  21  22  23  24  25 0
 3-21G
 ****
 27  28  30  31  32  35  37  42  43  44  45  46  47 0
 3-21G
 ****
 48  49 0
 3-21G
 ****


