%nproc=1
%NoSave
%Mem=1900MB
#P OB98/GEN NMR

erre ene a

0 1
  C      144.469     125.343     137.176
  O      143.386     126.133     137.634
  P      142.148     125.399     138.336
  C      140.722     125.371     136.162
  O      141.336     124.616     137.194
  C      139.394     124.730     135.751
  O      139.660     123.469     135.064
  C      138.458     124.421     136.926
  O      137.111     124.596     136.463
  C      138.722     122.948     137.179
  O      137.685     122.310     137.907
  C      138.888     122.454     135.737
  N      139.531     121.144     135.655
  C      139.123     120.176     136.566
  O      138.262     120.356     137.426
  N      139.787     118.979     136.502
  C      140.854     118.694     135.700
  O      141.481     117.644     135.772
  C      141.243     119.758     134.760
  C      140.575     120.912     134.779
  O      141.178     126.609     138.730
  O      142.508     124.563     139.519
  H      136.841     122.541     137.481
  H      141.275     126.829     139.676
  H      139.497     118.261     137.146
  H      142.071     119.557     134.093
  H      140.852     121.721     134.111
  H      137.912     122.412     135.238
  H      139.652     122.838     137.748
  H      138.641     125.042     137.808
  H      138.897     125.390     135.029
  H      141.387     125.405     135.298
  H      140.563     126.400     136.504
  P      136.114     125.476     137.368
  C      135.115     123.621     138.916
  O      135.985     124.724     138.774
  O      134.715     125.179     136.641
  O      136.469     126.925     137.414
  H      134.605     124.242     136.409
  H      135.065     123.028     137.999
  H      134.113     123.980     139.166
  H      135.476     122.986     139.727
  H      145.210     125.976     136.735
  H      144.117     124.644     136.447
  H      144.898     124.813     138.001

 3  4  5  6  7  8  9  10  11  12  13  23  28  29  30  31  32 0
 6-311+G(2d,p)
 ****
 33  34 0
 6-311+G(2d,p)
 ****
 1  2  14  15  16  17  18  19  20  21  22  24  25  26 0
 3-21G
 ****
 27  35  36  37  38  39  40  41  42  43  44  45 0
 3-21G
 ****


