%nproc=1
%NoSave
%Mem=1900MB
#P OB98/GEN NMR

erre ene a

0 1
  C      376.147    -229.033    -612.903
  O      377.247    -228.805    -613.784
  P      378.286    -227.638    -613.414
  C      380.357    -229.158    -612.984
  O      379.405    -228.244    -612.448
  C      381.056    -229.925    -611.858
  O      380.128    -230.455    -610.896
  C      381.858    -231.131    -612.346
  O      383.136    -230.742    -612.838
  C      382.009    -231.922    -611.057
  O      383.063    -231.359    -610.254
  C      380.652    -231.692    -610.382
  N      378.944    -236.267    -608.808
  C      379.964    -235.486    -608.380
  N      380.366    -234.291    -608.855
  C      379.595    -233.908    -609.888
  C      378.524    -234.595    -610.441
  C      378.209    -235.830    -609.865
  N      377.171    -236.639    -610.315
  N      377.980    -233.894    -611.498
  C      378.693    -232.792    -611.568
  N      379.688    -232.754    -610.618
  O      377.432    -226.699    -612.445
  O      378.797    -226.886    -614.600
  H      383.067    -231.838    -609.409
  H      377.696    -225.763    -612.574
  H      380.516    -235.874    -607.528
  H      378.521    -231.982    -612.277
  H      380.743    -231.581    -609.294
  H      382.261    -232.975    -611.235
  H      381.291    -231.708    -613.086
  H      381.734    -229.229    -611.333
  H      381.086    -228.622    -613.592
  H      376.994    -237.483    -609.822
  H      376.595    -236.296    -611.080
  H      379.839    -229.844    -613.658
  P      383.294    -230.604    -614.426
  C      383.405    -228.001    -614.323
  O      382.722    -229.149    -614.790
  O      382.201    -231.613    -614.996
  O      384.670    -230.914    -614.929
  H      382.487    -231.968    -615.857
  H      383.079    -227.132    -614.903
  H      384.489    -228.109    -614.451
  H      383.170    -227.835    -613.264
  H      375.548    -229.835    -613.280
  H      375.553    -228.145    -612.837
  H      376.515    -229.289    -611.932

 3  4  5  6  7  8  9  10  11  12  22  25  29  30  31  32 0
 6-311+G(2d,p)
 ****
 33  36  37 0
 6-311+G(2d,p)
 ****
 1  2  13  14  15  16  17  18  19  20  21  23  24  26 0
 3-21G
 ****
 27  28  34  35  38  39  40  41  42  43  44  45  46  47  48 0
 3-21G
 ****


