%nproc=1
%NoSave
%Mem=1900MB
#P OB98/GEN NMR

erre ene a

0 1
  C      234.800    -149.710     184.880
  O      235.660    -149.457     185.996
  P      235.204    -148.355     187.071
  C      236.759    -148.816     189.102
  O      236.477    -147.985     187.986
  C      238.275    -149.061     189.212
  O      238.805    -149.661     188.007
  C      239.082    -147.782     189.414
  O      239.099    -147.390     190.782
  C      240.467    -148.234     188.987
  O      241.094    -148.972     190.058
  C      240.153    -149.152     187.806
  N      243.079    -148.421     183.734
  C      243.306    -149.176     184.878
  N      244.487    -149.839     184.938
  N      242.454    -149.283     185.875
  C      241.299    -148.574     185.659
  C      240.964    -147.775     184.571
  C      241.927    -147.665     183.501
  O      241.786    -147.010     182.474
  N      239.726    -147.237     184.738
  C      239.314    -147.680     185.904
  N      240.243    -148.493     186.519
  O      234.281    -149.209     188.074
  O      234.460    -147.195     186.499
  H      241.920    -149.334     189.687
  H      233.615    -148.627     188.486
  H      243.772    -148.375     183.010
  H      238.348    -147.461     186.346
  H      240.838    -150.024     187.764
  H      241.133    -147.386     188.745
  H      245.164    -149.847     184.183
  H      238.724    -146.966     188.761
  H      244.653    -150.431     185.744
  H      238.464    -149.740     190.065
  H      236.246    -149.784     189.013
  H      236.369    -148.342     190.009
  P      238.175    -146.146     191.235
  C      238.389    -147.206     193.602
  O      238.332    -146.018     192.812
  O      236.686    -146.741     191.041
  O      238.380    -144.893     190.445
  H      236.081    -146.007     190.777
  H      238.668    -146.927     194.622
  H      239.157    -147.892     193.214
  H      237.422    -147.706     193.606
  H      235.236    -150.463     184.257
  H      234.674    -148.810     184.316
  H      233.847    -150.046     185.233

 3  4  5  6  7  8  9  10  11  12  23  26  30  31 0
 6-311+G(2d,p)
 ****
 33  35  36  37  38 0
 6-311+G(2d,p)
 ****
 1  2  13  14  15  16  17  18  19  20  21  22  24  25 0
 3-21G
 ****
 27  28  29  32  34  39  40  41  42  43  44  45  46  47  48  49 0
 3-21G
 ****


