%nproc=1
%NoSave
%Mem=1900MB
#P OB98/GEN NMR

erre ene a

0 1
  C     -298.809    -877.969     803.033
  O     -298.849    -877.303     801.774
  P     -298.885    -878.037     800.362
  C     -301.468    -877.917     799.900
  O     -300.326    -878.720     800.182
  C     -302.567    -878.689     799.148
  O     -302.033    -879.198     797.899
  C     -303.039    -879.894     799.949
  O     -304.004    -879.741     800.971
  C     -303.396    -880.937     798.902
  O     -304.787    -880.928     798.574
  C     -302.556    -880.519     797.690
  N     -301.066    -884.877     795.451
  C     -302.337    -884.334     795.544
  N     -303.349    -885.057     795.027
  N     -302.588    -883.180     796.112
  C     -301.503    -882.607     796.678
  C     -300.196    -883.055     796.671
  C     -299.915    -884.300     795.975
  O     -298.814    -884.823     795.861
  N     -299.365    -882.218     797.363
  C     -300.167    -881.268     797.807
  N     -301.480    -881.458     797.412
  O     -297.700    -878.882     800.038
  O     -298.921    -876.806     799.302
  H     -304.922    -881.547     797.837
  H     -298.427    -877.119     798.509
  H     -300.924    -885.750     794.969
  H     -299.857    -880.420     798.404
  H     -303.169    -880.486     796.781
  H     -303.175    -881.950     799.273
  H     -303.238    -885.997     794.678
  H     -302.144    -880.300     800.469
  H     -304.297    -884.776     795.276
  H     -303.388    -878.010     798.873
  H     -301.126    -877.065     799.311
  H     -301.878    -877.510     800.837
  P     -304.362    -880.822     802.108
  C     -304.533    -878.880     803.777
  O     -304.008    -880.167     803.529
  O     -303.236    -881.953     801.941
  O     -305.736    -881.416     802.011
  H     -303.520    -882.770     802.410
  H     -303.988    -878.427     804.605
  H     -305.592    -878.966     804.039
  H     -304.435    -878.238     802.884
  H     -298.791    -877.244     803.820
  H     -297.930    -878.576     803.087
  H     -299.676    -878.587     803.137

 3  4  5  6  7  8  9  10  11  12  23  26  30  31 0
 6-311+G(2d,p)
 ****
 33  35  36  37  38 0
 6-311+G(2d,p)
 ****
 1  2  13  14  15  16  17  18  19  20  21  22  24  25 0
 3-21G
 ****
 27  28  29  32  34  39  40  41  42  43  44  45  46  47  48  49 0
 3-21G
 ****


