%nproc=1
%NoSave
%Mem=1900MB
#P OB98/GEN NMR

erre ene a

0 1
  C     -354.731      52.741     272.166
  O     -354.699      51.328     272.085
  P     -353.586      50.483     272.859
  C     -351.828      50.613     270.916
  O     -352.157      50.866     272.262
  C     -350.396      51.104     270.651
  O     -350.339      52.537     270.752
  C     -349.409      50.519     271.660
  O     -348.793      49.350     271.136
  C     -348.439      51.667     271.877
  O     -347.466      51.710     270.816
  C     -349.381      52.890     271.791
  N     -350.137      53.273     272.998
  C     -349.590      53.030     274.259
  O     -348.482      52.537     274.436
  N     -350.393      53.359     275.325
  C     -351.629      53.935     275.250
  O     -352.419      53.997     276.182
  C     -352.024      54.408     273.915
  C     -351.287      54.039     272.870
  O     -353.822      48.996     272.328
  O     -353.644      50.563     274.350
  H     -346.937      52.517     270.945
  H     -354.348      48.479     272.967
  H     -350.059      53.059     276.235
  H     -352.930      54.991     273.830
  H     -351.583      54.345     271.868
  H     -348.838      53.780     271.452
  H     -347.877      51.539     272.800
  H     -349.917      50.303     272.609
  H     -350.106      50.823     269.631
  H     -352.532      51.119     270.250
  H     -351.903      49.539     270.707
  P     -348.523      48.102     272.102
  C     -346.092      48.848     272.445
  O     -347.331      48.574     273.070
  O     -348.314      46.790     271.417
  O     -349.814      48.081     273.050
  H     -350.461      47.426     272.715
  H     -345.433      49.317     273.174
  H     -346.232      49.519     271.595
  H     -345.636      47.910     272.107
  H     -355.546      53.113     271.581
  H     -353.812      53.141     271.792
  H     -354.860      53.037     273.186

 3  4  5  6  7  8  9  10  11  12  13  23  28  29  30  31  32 0
 6-311+G(2d,p)
 ****
 33  34 0
 6-311+G(2d,p)
 ****
 1  2  14  15  16  17  18  19  20  21  22  24  25  26  27 0
 3-21G
 ****
 35  36  37  38  39  40  41  42  43  44  45 0
 3-21G
 ****


