%nproc=1
%NoSave
%Mem=1900MB
#P OB98/GEN NMR

erre ene a

0 1
  C      400.474     314.487     101.068
  O      401.084     313.297     101.536
  H      401.244     315.120     100.618
  H      400.013     315.033     101.894
  H      399.724     314.257     100.308
  P      400.155     312.202     102.247
  C      400.082     310.744     100.115
  O      399.333     311.493     101.064
  C      399.811     309.255     100.293
  O      398.396     308.991     100.221
  C      400.474     308.373      99.232
  O      401.840     308.155      99.552
  C      399.624     307.121      99.350
  O      400.013     306.374     100.517
  C      398.217     307.716      99.538
  N      395.119     305.693      96.073
  C      395.713     305.112      97.179
  N      395.479     303.795      97.360
  N      396.480     305.762      98.018
  C      396.680     307.053      97.666
  C      396.160     307.734      96.592
  C      395.267     307.021      95.703
  O      394.703     307.499      94.719
  N      396.639     309.020      96.526
  C      397.413     309.126      97.586
  N      397.484     307.953      98.304
  O      399.294     312.688     103.374
  O      401.180     311.067     102.716
  H      399.375     305.641     100.603
  H      401.478     311.222     103.633
  H      394.554     305.131      95.459
  H      397.945     310.024      97.881
  H      397.583     307.088     100.174
  H      399.722     306.457      98.491
  H      395.145     303.203      96.611
  H      400.349     308.787      98.228
  H      395.946     303.340      98.136
  H      400.141     308.972     101.301
  H      401.141     310.965     100.281
  H      399.815     311.048      99.098
  P      402.938     307.963      98.398
  C      404.802     309.444      99.402
  O      403.793     309.319      98.409
  O      402.386     307.586      97.064
  O      403.966     306.897      98.994
  H      403.718     305.961      98.809
  H      405.292     310.390      99.296
  H      405.517     308.657      99.285
  H      404.357     309.380     100.373

 6  7  8  9  10  11  12  13  14  15  26  29  33  34 0
 6-311+G(2d,p)
 ****
 36  38  39  40  41 0
 6-311+G(2d,p)
 ****
 1  2  3  4  5  16  17  18  19  20  21  22  23  24  25 0
 3-21G
 ****
 27  28  30  31  32  35  37  42  43  44  45  46  47 0
 3-21G
 ****
 48  49 0
 3-21G
 ****


