%nproc=1
%NoSave
%Mem=1900MB
#P OB98/GEN NMR

erre ene a

0 1
  C      563.871     537.910     545.411
  O      563.932     538.085     544.006
  H      564.565     537.120     545.721
  H      564.162     538.845     545.898
  H      562.853     537.651     545.714
  P      563.574     536.806     543.104
  C      564.773     534.543     542.648
  O      564.724     535.730     543.425
  C      566.206     534.006     542.632
  O      567.031     534.840     541.777
  C      566.882     534.010     543.993
  O      566.530     532.883     544.777
  C      568.345     533.975     543.587
  O      568.700     532.638     543.187
  C      568.360     534.924     542.377
  N      571.956     538.199     543.981
  C      572.006     536.880     543.670
  N      571.010     536.080     543.234
  C      569.865     536.783     543.113
  C      569.666     538.124     543.382
  C      570.778     538.844     543.848
  N      570.720     540.177     544.196
  N      568.346     538.475     543.164
  C      567.774     537.366     542.738
  N      568.634     536.304     542.718
  O      563.933     537.279     541.616
  O      562.184     536.285     543.230
  H      569.680     532.579     543.217
  H      563.548     536.666     540.962
  H      572.975     536.402     543.784
  H      566.728     537.272     542.445
  H      569.088     534.617     541.613
  H      569.021     534.249     544.403
  H      566.690     534.951     544.539
  H      566.197     532.999     542.195
  H      564.454     534.770     541.627
  H      571.532     540.565     544.654
  H      569.824     540.634     544.238
  H      564.106     533.795     543.078
  P      566.182     533.137     546.328
  C      567.571     534.261     548.232
  O      567.588     533.431     547.061
  O      565.787     531.681     546.855
  O      565.105     534.142     546.571
  H      565.113     531.736     547.552
  H      568.567     534.368     548.608
  H      566.954     533.809     548.980
  H      567.179     535.224     547.981

 6  7  8  9  10  11  12  13  14  15  25  28  32  33  34  35 0
 6-311+G(2d,p)
 ****
 36  39  40 0
 6-311+G(2d,p)
 ****
 1  2  3  4  5  16  17  18  19  20  21  22  23  24 0
 3-21G
 ****
 26  27  29  30  31  37  38  41  42  43  44  45  46  47 0
 3-21G
 ****
 48 0
 3-21G
 ****


