%nproc=1
%NoSave
%Mem=1900MB
#P OB98/GEN NMR

erre ene a

0 1
  C        4.191     116.099     181.962
  O        2.923     116.123     181.297
  P        1.860     117.258     181.684
  C        2.247     119.356     180.236
  O        1.534     118.136     180.380
  C        2.111     119.908     178.807
  O        2.911     119.114     177.894
  C        0.660     119.899     178.300
  O        0.243     121.158     177.767
  C        0.632     118.728     177.328
  O       -0.403     118.830     176.361
  C        2.071     118.692     176.798
  N        2.441     117.365     176.295
  C        2.726     117.273     174.935
  O        2.603     118.216     174.155
  N        3.090     116.032     174.486
  C        3.127     114.891     175.228
  O        3.419     113.793     174.764
  C        2.754     115.037     176.643
  C        2.435     116.253     177.103
  O        2.166     118.042     182.918
  O        0.500     116.419     181.876
  H       -0.200     118.209     175.630
  H        0.013     116.801     182.632
  H        3.318     115.951     173.508
  H        2.749     114.148     177.258
  H        2.144     116.384     178.139
  H        2.203     119.400     175.975
  H        0.448     117.808     177.900
  H       -0.050     119.711     179.113
  H        2.506     120.930     178.814
  H        3.304     119.190     180.447
  H        1.896     120.072     180.986
  P       -0.798     122.142     178.480
  C        1.102     123.873     178.813
  O       -0.225     123.634     178.385
  O       -1.258     121.728     179.841
  O       -2.038     122.158     177.457
  H       -2.873     122.145     177.968
  H        1.211     124.940     179.034
  H        1.798     123.610     178.010
  H        1.349     123.297     179.712
  H        4.775     115.284     181.587
  H        4.040     115.975     183.014
  H        4.706     117.019     181.781

 3  4  5  6  7  8  9  10  11  12  13  23  28  29  30  31  32 0
 6-311+G(2d,p)
 ****
 33  34 0
 6-311+G(2d,p)
 ****
 1  2  14  15  16  17  18  19  20  21  22  24  25  26  27 0
 3-21G
 ****
 35  36  37  38  39  40  41  42  43  44  45 0
 3-21G
 ****


