%nproc=1
%NoSave
%Mem=1900MB
#P OB98/GEN NMR

erre ene a

0 1
  C     -106.988     136.588      97.940
  O     -105.827     136.030      98.517
  H     -106.872     137.675      97.906
  H     -107.865     136.351      98.548
  H     -107.132     136.220      96.921
  P     -105.678     134.435      98.567
  C     -104.062     134.633      96.569
  O     -105.197     133.969      97.110
  C     -103.792     134.129      95.155
  O     -102.880     135.018      94.472
  C     -103.143     132.751      95.105
  O     -104.089     131.738      95.381
  C     -102.591     132.755      93.687
  O     -103.622     132.470      92.731
  C     -102.109     134.218      93.546
  N     -100.672     134.370      93.785
  C      -99.884     134.581      92.660
  O     -100.336     134.637      91.519
  N      -98.536     134.680      92.888
  C      -97.916     134.500      94.091
  O      -96.701     134.379      94.213
  C      -98.805     134.356      95.252
  C     -100.123     134.282      95.048
  O     -106.849     133.691      99.115
  O     -104.368     134.209      99.463
  H     -104.636     133.962     100.369
  H     -103.874     131.535      92.866
  H      -97.950     134.786      92.074
  H      -98.354     134.276      96.233
  H     -100.796     134.146      95.888
  H     -102.329     134.598      92.540
  H     -101.806     132.009      93.544
  H     -102.305     132.704      95.810
  H     -104.740     134.132      94.603
  H     -103.196     134.417      97.205
  H     -104.246     135.712      96.571
  P     -103.644     130.343      96.026
  C     -103.636     131.445      98.340
  O     -102.906     130.652      97.415
  O     -102.891     129.433      95.114
  O     -105.021     129.670      96.495
  H     -105.080     128.770      96.118
  H     -103.053     131.588      99.226
  H     -104.550     130.949      98.591
  H     -103.855     132.395      97.900

 6  7  8  9  10  11  12  13  14  15  16  27  31  32  33  34  35 0
 6-311+G(2d,p)
 ****
 36  37 0
 6-311+G(2d,p)
 ****
 1  2  3  4  5  17  18  19  20  21  22  23  24  25 0
 3-21G
 ****
 26  28  29  30  38  39  40  41  42  43  44  45 0
 3-21G
 ****


