%nproc=1
%NoSave
%Mem=1900MB
#P OB98/GEN NMR

erre ene a

0 1
  C      705.193     266.646     369.927
  O      703.834     266.755     369.473
  P      702.974     265.414     369.348
  C      702.419     265.631     371.888
  O      702.818     264.780     370.823
  C      701.121     265.121     372.516
  O      700.005     265.230     371.598
  C      701.160     263.667     372.925
  O      701.792     263.475     374.188
  C      699.669     263.338     373.032
  O      699.160     263.820     374.289
  C      699.083     264.140     371.879
  N      695.689     261.794     368.848
  C      695.552     262.454     370.018
  N      696.501     263.027     370.777
  C      697.710     262.902     370.200
  C      698.006     262.266     369.002
  C      696.924     261.701     368.307
  N      697.073     261.034     367.111
  N      699.353     262.337     368.732
  C      699.866     263.011     369.736
  N      698.909     263.372     370.658
  O      703.978     264.393     368.627
  O      701.701     265.571     368.587
  H      699.429     263.180     374.973
  H      703.477     263.793     368.042
  H      694.540     262.513     370.409
  H      700.921     263.263     369.850
  H      698.113     264.577     372.124
  H      699.480     262.264     372.996
  H      701.633     263.043     372.149
  H      700.897     265.745     373.404
  H      702.290     266.655     371.531
  H      696.245     260.675     366.657
  H      697.982     260.974     366.697
  H      703.216     265.665     372.636
  P      702.421     262.040     374.502
  C      704.761     263.154     374.399
  O      703.943     262.093     373.986
  O      701.675     261.087     373.446
  O      702.237     261.583     375.904
  H      701.593     260.185     373.809
  H      705.808     262.888     374.210
  H      704.638     263.352     375.470
  H      704.535     264.058     373.825
  H      705.637     267.619     369.959
  H      705.745     266.024     369.254
  H      705.208     266.214     370.906

 3  4  5  6  7  8  9  10  11  12  22  25  29  30  31  32 0
 6-311+G(2d,p)
 ****
 33  36  37 0
 6-311+G(2d,p)
 ****
 1  2  13  14  15  16  17  18  19  20  21  23  24  26 0
 3-21G
 ****
 27  28  34  35  38  39  40  41  42  43  44  45  46  47  48 0
 3-21G
 ****


