%nproc=1
%NoSave
%Mem=1900MB
#P OB98/GEN NMR

erre ene a

0 1
  C       61.415     -11.344     -23.989
  O       62.029     -11.298     -25.262
  P       62.768     -12.591     -25.849
  C       60.718     -13.606     -27.020
  O       61.688     -13.767     -25.990
  C       61.113     -14.410     -28.256
  O       61.319     -15.801     -27.920
  C       60.058     -14.421     -29.351
  O       59.982     -13.181     -30.028
  C       60.535     -15.591     -30.201
  O       61.601     -15.189     -31.073
  C       61.059     -16.564     -29.124
  N       60.139     -17.661     -28.870
  C       59.768     -18.422     -29.983
  O       60.148     -18.106     -31.110
  N       58.966     -19.519     -29.787
  C       58.478     -19.759     -28.611
  N       57.740     -20.891     -28.465
  C       58.716     -18.884     -27.445
  C       59.566     -17.877     -27.639
  O       64.027     -12.978     -25.148
  O       63.068     -12.205     -27.375
  H       64.008     -12.389     -27.567
  H       61.928     -16.002     -31.506
  H       58.231     -19.089     -26.502
  H       59.818     -17.196     -26.833
  H       62.028     -16.979     -29.428
  H       59.738     -16.000     -30.831
  H       59.080     -14.661     -28.917
  H       62.059     -14.004     -28.637
  H       57.614     -21.476     -29.282
  H       60.653     -12.545     -27.276
  H       57.594     -21.334     -27.562
  H       59.741     -13.929     -26.646
  P       58.515     -12.584     -30.285
  C       58.209     -10.572     -28.685
  O       58.005     -11.953     -28.905
  O       57.610     -13.893     -30.462
  O       58.409     -11.686     -31.473
  H       56.922     -13.728     -31.133
  H       57.523     -10.238     -27.903
  H       58.022      -9.990     -29.591
  H       59.235     -10.405     -28.347
  H       60.977     -10.393     -23.770
  H       62.150     -11.578     -23.247
  H       60.654     -12.096     -23.987

 3  4  5  6  7  8  9  10  11  12  13  24  27  28  29  30  32 0
 6-311+G(2d,p)
 ****
 34  35 0
 6-311+G(2d,p)
 ****
 1  2  14  15  16  17  18  19  20  21  22  23  25  26 0
 3-21G
 ****
 31  33  36  37  38  39  40  41  42  43  44  45  46 0
 3-21G
 ****


