%nproc=1
%NoSave
%Mem=1900MB
#P OB98/GEN NMR

erre ene a

0 1
  C      871.870    -812.571    -706.357
  O      872.684    -811.540    -706.871
  H      872.076    -812.694    -705.296
  H      872.089    -813.504    -706.870
  H      870.803    -812.327    -706.472
  P      872.372    -810.941    -708.327
  C      872.307    -808.569    -707.302
  O      872.856    -809.414    -708.306
  C      873.114    -807.279    -707.166
  O      874.355    -807.569    -706.448
  C      873.501    -806.627    -708.509
  O      873.562    -805.228    -708.307
  C      874.893    -807.202    -708.729
  O      875.615    -806.461    -709.692
  C      875.454    -807.168    -707.299
  N      876.637    -808.017    -707.129
  C      877.777    -807.661    -707.810
  O      877.833    -806.682    -708.591
  N      878.865    -808.471    -707.659
  C      878.904    -809.625    -706.935
  O      879.884    -810.327    -706.844
  C      877.638    -809.985    -706.246
  C      876.578    -809.169    -706.362
  O      870.978    -811.148    -708.826
  O      873.458    -811.644    -709.284
  H      876.529    -806.849    -709.797
  H      873.100    -811.744    -710.177
  H      879.700    -808.211    -708.169
  H      877.631    -810.905    -705.664
  H      875.641    -809.431    -705.885
  H      875.732    -806.142    -707.024
  H      874.849    -808.243    -709.104
  H      872.813    -806.880    -709.326
  H      872.550    -806.575    -706.545
  H      872.329    -809.135    -706.356
  H      871.257    -808.336    -707.548
  P      873.569    -804.173    -709.535
  C      871.508    -802.851    -708.700
  O      872.898    -802.799    -709.041
  O      872.969    -804.725    -710.804
  O      875.106    -803.784    -709.736
  H      875.258    -803.550    -710.686
  H      871.181    -801.881    -708.388
  H      871.362    -803.550    -707.903
  H      870.943    -803.161    -709.554

 6  7  8  9  10  11  12  13  14  15  16  26  31  32  33  34  35 0
 6-311+G(2d,p)
 ****
 36  37 0
 6-311+G(2d,p)
 ****
 1  2  3  4  5  17  18  19  20  21  22  23  24  25 0
 3-21G
 ****
 27  28  29  30  38  39  40  41  42  43  44  45 0
 3-21G
 ****


