%nproc=1
%NoSave
%Mem=1900MB
#P OB98/GEN NMR

erre ene a

0 1
  C     -296.807     233.493     624.031
  O     -297.545     234.692     623.891
  H     -297.503     232.651     624.025
  H     -296.263     233.492     624.977
  H     -296.105     233.378     623.194
  P     -296.698     236.055     623.901
  C     -298.141     237.631     622.431
  O     -297.767     237.248     623.749
  C     -299.526     238.292     622.447
  O     -300.568     237.290     622.428
  C     -299.786     239.173     623.664
  O     -299.228     240.469     623.489
  C     -301.306     239.192     623.701
  O     -301.843     240.139     622.757
  C     -301.654     237.754     623.282
  N     -303.676     233.352     624.706
  C     -303.643     233.958     623.471
  N     -304.292     233.321     622.465
  N     -303.039     235.094     623.228
  C     -302.463     235.637     624.331
  C     -302.415     235.122     625.605
  C     -303.062     233.850     625.854
  O     -303.076     233.229     626.909
  N     -301.717     235.952     626.449
  C     -301.383     236.980     625.691
  N     -301.827     236.839     624.402
  O     -295.954     236.052     622.482
  O     -295.728     236.199     625.026
  H     -301.448     239.983     621.883
  H     -295.105     236.516     622.567
  H     -304.142     232.468     624.824
  H     -300.820     237.841     626.027
  H     -302.576     237.704     622.687
  H     -301.686     239.475     624.678
  H     -305.031     232.649     622.654
  H     -299.403     238.696     624.581
  H     -304.289     233.762     621.562
  H     -299.618     238.877     621.521
  H     -298.185     236.737     621.798
  H     -297.401     238.326     622.033
  P     -298.239     241.013     624.636
  C     -297.281     242.827     623.040
  O     -297.931     242.545     624.272
  O     -296.857     240.268     624.312
  O     -298.707     240.756     626.030
  H     -296.266     240.312     625.094
  H     -297.146     243.884     622.942
  H     -297.880     242.467     622.230
  H     -296.327     242.343     623.021

 6  7  8  9  10  11  12  13  14  15  26  29  33  34 0
 6-311+G(2d,p)
 ****
 36  38  39  40  41 0
 6-311+G(2d,p)
 ****
 1  2  3  4  5  16  17  18  19  20  21  22  23  24  25 0
 3-21G
 ****
 27  28  30  31  32  35  37  42  43  44  45  46  47 0
 3-21G
 ****
 48  49 0
 3-21G
 ****


