%nproc=1
%NoSave
%Mem=1900MB
#P OB98/GEN NMR

erre ene a

0 1
  C       82.553     135.360       5.482
  O       81.940     134.607       6.507
  H       82.900     134.676       4.705
  H       83.414     135.898       5.884
  H       81.848     136.066       5.035
  P       81.088     135.371       7.627
  C       81.639     136.737       9.744
  O       82.147     136.130       8.565
  C       82.744     136.897      10.793
  O       82.906     135.634      11.502
  C       84.113     137.272      10.206
  O       84.798     138.062      11.187
  C       84.772     135.915      10.069
  O       86.169     136.030       9.923
  C       84.279     135.226      11.345
  N       84.419     133.773      11.286
  C       85.599     133.243      11.790
  O       86.513     133.936      12.238
  N       85.724     131.883      11.725
  C       84.826     131.027      11.157
  O       85.004     129.817      11.096
  C       83.614     131.649      10.600
  C       83.466     132.973      10.692
  O       80.089     134.541       8.360
  O       80.395     136.580       6.839
  H       86.539     136.598      10.632
  H       79.539     136.803       7.253
  H       86.571     131.481      12.095
  H       82.886     130.998      10.135
  H       82.584     133.460      10.290
  H       84.838     135.585      12.219
  H       84.395     135.391       9.184
  H       84.041     137.813       9.260
  H       82.417     137.636      11.535
  H       80.843     136.096      10.138
  H       81.217     137.716       9.498
  P       84.657     139.660      11.247
  C       85.086     141.685       9.714
  O       85.028     140.264       9.808
  O       85.384     140.298      12.384
  O       83.081     139.924      11.364
  H       82.923     140.765      11.832
  H       85.341     141.966       8.713
  H       85.828     142.057      10.389
  H       84.133     142.099       9.969

 6  7  8  9  10  11  12  13  14  15  16  26  31  32  33  34  35 0
 6-311+G(2d,p)
 ****
 36  37 0
 6-311+G(2d,p)
 ****
 1  2  3  4  5  17  18  19  20  21  22  23  24  25 0
 3-21G
 ****
 27  28  29  30  38  39  40  41  42  43  44  45 0
 3-21G
 ****


