%nproc=1
%NoSave
%Mem=1900MB
#P OB98/GEN NMR

erre ene a

0 1
  C       86.569      -9.104      87.328
  O       85.255      -8.578      87.363
  P       84.081      -9.299      86.547
  C       84.262      -7.726      84.482
  O       83.470      -8.208      85.546
  C       84.142      -6.203      84.347
  O       82.780      -5.896      83.963
  C       84.399      -5.424      85.632
  O       84.670      -4.062      85.293
  C       83.058      -5.518      86.325
  O       82.892      -4.510      87.318
  C       82.063      -5.453      85.139
  N       80.885      -6.308      85.373
  C       79.894      -5.799      86.207
  O       79.933      -4.664      86.677
  N       78.898      -6.671      86.552
  C       78.836      -7.982      86.185
  O       78.127      -8.815      86.739
  C       79.769      -8.389      85.122
  C       80.755      -7.553      84.788
  O       82.941      -9.481      87.655
  O       84.458     -10.595      85.918
  H       81.936      -4.502      87.557
  H       82.982     -10.378      88.036
  H       78.260      -6.347      87.269
  H       79.657      -9.375      84.696
  H       81.490      -7.847      84.044
  H       81.709      -4.429      84.970
  H       82.981      -6.490      86.826
  H       85.207      -5.828      86.249
  H       84.806      -5.856      83.545
  H       83.958      -8.221      83.554
  H       85.314      -7.988      84.642
  P       86.118      -3.474      85.651
  C       85.414      -2.335      87.842
  O       85.864      -2.147      86.515
  O       87.064      -3.324      84.508
  O       86.666      -4.508      86.747
  H       87.635      -4.428      86.818
  H       85.762      -1.499      88.453
  H       85.793      -3.267      88.266
  H       84.321      -2.351      87.851
  H       87.213      -8.495      87.927
  H       86.923      -9.112      86.318
  H       86.564     -10.103      87.712

 3  4  5  6  7  8  9  10  11  12  13  23  28  29  30  31  32 0
 6-311+G(2d,p)
 ****
 33  34 0
 6-311+G(2d,p)
 ****
 1  2  14  15  16  17  18  19  20  21  22  24  25  26  27 0
 3-21G
 ****
 35  36  37  38  39  40  41  42  43  44  45 0
 3-21G
 ****


