%nproc=1
%NoSave
%Mem=1900MB
#P OB98/GEN NMR

erre ene a

0 1
  C      758.455      25.639     212.928
  O      757.403      25.987     213.832
  P      757.406      27.487     214.407
  C      759.348      27.194     216.096
  O      758.892      27.828     214.914
  C      760.521      27.965     216.731
  O      760.783      27.485     218.080
  C      761.829      27.825     215.948
  O      762.555      29.058     216.085
  C      762.579      26.737     216.700
  O      763.970      26.769     216.423
  C      762.173      27.081     218.138
  N      762.312      25.680     223.046
  C      762.114      26.875     222.448
  N      762.111      27.172     221.132
  C      762.308      26.062     220.402
  C      762.535      24.777     220.867
  C      762.538      24.602     222.256
  N      762.766      23.393     222.858
  N      762.734      23.908     219.807
  C      762.636      24.666     218.727
  N      762.354      25.961     219.039
  O      756.571      27.361     215.769
  O      756.799      28.492     213.491
  H      764.310      27.649     216.680
  H      755.697      27.769     215.659
  H      761.937      27.717     223.134
  H      762.775      24.314     217.712
  H      762.762      27.925     218.540
  H      762.187      25.757     216.413
  H      761.706      27.589     214.883
  H      760.246      29.016     216.805
  H      759.672      26.173     215.885
  H      762.780      23.348     223.870
  H      762.982      22.578     222.291
  H      758.510      27.105     216.806
  P      762.962      29.806     214.726
  C      765.410      28.931     214.671
  O      764.126      28.921     214.071
  O      763.731      31.112     215.237
  O      761.816      30.133     213.835
  H      763.664      31.818     214.567
  H      765.815      27.913     214.648
  H      765.379      29.284     215.702
  H      766.073      29.588     214.094
  H      758.339      24.621     212.621
  H      759.399      25.759     213.417
  H      758.414      26.277     212.070

 3  4  5  6  7  8  9  10  11  12  22  25  29  30  31  32 0
 6-311+G(2d,p)
 ****
 33  36  37 0
 6-311+G(2d,p)
 ****
 1  2  13  14  15  16  17  18  19  20  21  23  24  26 0
 3-21G
 ****
 27  28  34  35  38  39  40  41  42  43  44  45  46  47  48 0
 3-21G
 ****


