%nproc=1
%NoSave
%Mem=1900MB
#P OB98/GEN NMR

erre ene a

0 1
  C      277.180    -427.783    1054.086
  O      277.128    -427.379    1052.734
  H      278.106    -427.404    1054.531
  H      277.179    -428.871    1054.150
  H      276.333    -427.378    1054.649
  P      275.754    -427.542    1051.927
  C      274.660    -425.207    1052.016
  O      274.709    -426.517    1052.589
  C      273.198    -424.741    1051.865
  O      272.566    -424.757    1053.184
  C      273.054    -423.317    1051.299
  O      271.830    -423.283    1050.560
  C      272.936    -422.491    1052.563
  O      272.405    -421.213    1052.295
  C      272.075    -423.416    1053.433
  N      272.143    -423.065    1054.848
  C      271.468    -421.914    1055.231
  O      270.873    -421.175    1054.436
  N      271.536    -421.588    1056.560
  C      272.248    -422.257    1057.514
  O      272.307    -421.899    1058.684
  C      272.980    -423.442    1057.044
  C      272.885    -423.795    1055.758
  O      275.244    -428.943    1051.786
  O      276.050    -426.871    1050.500
  H      272.202    -420.737    1053.127
  H      275.515    -427.305    1049.812
  H      271.041    -420.753    1056.849
  H      273.559    -424.001    1057.762
  H      273.411    -424.670    1055.375
  H      271.025    -423.375    1053.115
  H      273.923    -422.342    1053.025
  H      273.895    -423.026    1050.667
  H      272.661    -425.473    1051.251
  H      275.135    -425.247    1051.037
  H      275.208    -424.510    1052.662
  P      271.787    -422.915    1048.989
  C      272.741    -425.171    1048.160
  O      272.938    -423.759    1048.239
  O      271.809    -421.446    1048.702
  O      270.427    -423.589    1048.452
  H      270.101    -423.077    1047.687
  H      273.565    -425.618    1047.644
  H      271.835    -425.376    1047.629
  H      272.676    -425.578    1049.147

 6  7  8  9  10  11  12  13  14  15  16  26  31  32  33  34  35 0
 6-311+G(2d,p)
 ****
 36  37 0
 6-311+G(2d,p)
 ****
 1  2  3  4  5  17  18  19  20  21  22  23  24  25 0
 3-21G
 ****
 27  28  29  30  38  39  40  41  42  43  44  45 0
 3-21G
 ****


