%nproc=1
%NoSave
%Mem=1900MB
#P OB98/GEN NMR

erre ene a

0 1
  C       15.781      37.513      -4.755
  O       15.969      38.045      -3.459
  H       15.371      36.502      -4.692
  H       15.073      38.146      -5.298
  H       16.731      37.497      -5.298
  P       16.952      37.237      -2.481
  C       14.986      35.780      -1.597
  O       16.243      35.813      -2.257
  C       14.621      34.333      -1.281
  O       14.199      33.654      -2.486
  C       15.781      33.514      -0.728
  O       15.972      33.710       0.662
  C       15.298      32.104      -1.024
  O       14.296      31.722      -0.066
  C       14.667      32.279      -2.415
  N       16.843      28.697      -5.355
  C       15.906      28.621      -4.385
  N       15.365      29.624      -3.665
  C       15.876      30.808      -4.036
  C       16.831      31.042      -5.012
  C       17.329      29.916      -5.689
  N       18.307      29.986      -6.656
  N       17.122      32.391      -5.093
  C       16.341      32.957      -4.195
  N       15.595      32.039      -3.508
  O       16.761      37.960      -1.066
  O       18.379      37.157      -2.910
  H       13.948      30.855      -0.347
  H       17.473      37.698      -0.451
  H       15.548      27.622      -4.156
  H       16.289      34.020      -3.998
  H       13.803      31.624      -2.571
  H       16.098      31.362      -0.966
  H       16.706      33.698      -1.286
  H       13.773      34.335      -0.586
  H       14.226      36.216      -2.253
  H       18.701      29.115      -6.975
  H       18.778      30.866      -6.807
  H       15.043      36.364      -0.674
  P       17.485      33.740       1.205
  C       17.230      31.438       2.381
  O       17.924      32.210       1.408
  O       17.316      34.278       2.702
  O       18.417      34.584       0.400
  H       18.092      34.805       2.971
  H       17.631      30.446       2.402
  H       16.191      31.397       2.129
  H       17.346      31.890       3.344

 6  7  8  9  10  11  12  13  14  15  25  28  32  33  34  35 0
 6-311+G(2d,p)
 ****
 36  39  40 0
 6-311+G(2d,p)
 ****
 1  2  3  4  5  16  17  18  19  20  21  22  23  24 0
 3-21G
 ****
 26  27  29  30  31  37  38  41  42  43  44  45  46  47 0
 3-21G
 ****
 48 0
 3-21G
 ****


