%nproc=1
%NoSave
%Mem=1900MB
#P OB98/GEN NMR

erre ene a

0 1
  C      277.880    -306.355    -107.960
  O      278.252    -304.982    -107.949
  P      277.514    -304.026    -106.889
  C      275.031    -303.423    -106.436
  O      275.972    -304.004    -107.331
  C      273.627    -303.936    -106.729
  O      273.610    -305.372    -106.667
  C      272.568    -303.474    -105.738
  O      272.110    -302.160    -106.022
  C      271.470    -304.499    -105.984
  O      270.698    -304.116    -107.140
  C      272.274    -305.778    -106.277
  N      270.161    -309.692    -103.856
  C      269.772    -309.053    -105.018
  N      268.676    -309.546    -105.637
  N      270.395    -308.025    -105.525
  C      271.494    -307.666    -104.824
  C      271.983    -308.220    -103.661
  C      271.253    -309.327    -103.079
  O      271.515    -309.890    -102.020
  N      273.134    -307.594    -103.253
  C      273.362    -306.690    -104.185
  N      272.379    -306.676    -105.144
  O      278.034    -302.568    -107.296
  O      277.787    -304.334    -105.456
  H      271.318    -304.080    -107.894
  H      277.987    -301.972    -106.524
  H      269.655    -310.490    -103.520
  H      274.219    -306.030    -104.203
  H      271.848    -306.330    -107.120
  H      270.771    -304.585    -105.145
  H      268.232    -310.411    -105.367
  H      272.926    -303.560    -104.708
  H      268.395    -309.115    -106.507
  H      273.356    -303.633    -107.749
  H      275.046    -302.336    -106.557
  H      275.326    -303.663    -105.410
  P      271.060    -301.525    -104.987
  C      269.092    -302.775    -103.844
  O      269.779    -302.486    -105.044
  O      270.577    -300.189    -105.725
  O      271.620    -301.249    -103.632
  H      270.273    -299.532    -105.071
  H      269.071    -301.907    -103.174
  H      269.575    -303.613    -103.337
  H      268.063    -303.052    -104.085
  H      278.445    -306.872    -108.708
  H      276.836    -306.440    -108.179
  H      278.079    -306.786    -107.001

 3  4  5  6  7  8  9  10  11  12  23  26  30  31  33  0
 6-311+G(2d,p)
 ****
 35  36  37  38 0
 6-311+G(2d,p)
 ****
 1  2  13  14  15  16  17  18  19  20  21  22  24  25  27  28  29 0
 3-21G
 ****
 32  34  39  40  41  42  43  44  45  46  47  48  49 0
 3-21G
 ****


