%nproc=1
%NoSave
%Mem=1900MB
#P OB98/GEN NMR

erre ene a

0 1
  C      -28.371    -473.706     -45.051
  O      -28.401    -472.310     -45.388
  P      -29.286    -471.306     -44.496
  C      -28.819    -469.198     -43.008
  O      -28.296    -470.331     -43.692
  C      -27.699    -468.201     -42.698
  O      -26.742    -468.778     -41.783
  C      -26.881    -467.780     -43.914
  O      -27.573    -466.835     -44.717
  C      -25.628    -467.212     -43.250
  O      -25.840    -465.853     -42.831
  C      -25.471    -468.138     -42.028
  N      -24.403    -469.122     -42.198
  C      -23.184    -468.824     -41.597
  O      -22.966    -467.777     -40.992
  N      -22.200    -469.773     -41.737
  C      -22.298    -470.925     -42.469
  O      -21.372    -471.723     -42.578
  C      -23.579    -471.143     -43.148
  C      -24.555    -470.247     -42.992
  O      -29.812    -472.273     -43.329
  O      -30.429    -470.650     -45.196
  H      -25.025    -465.571     -42.373
  H      -30.666    -471.944     -42.991
  H      -21.321    -469.590     -41.286
  H      -23.688    -472.036     -43.755
  H      -25.515    -470.393     -43.486
  H      -25.253    -467.545     -41.130
  H      -24.761    -467.210     -43.922
  H      -26.608    -468.667     -44.501
  H      -28.152    -467.319     -42.213
  H      -29.276    -469.526     -42.068
  H      -29.594    -468.732     -43.628
  P      -27.995    -467.317     -46.190
  C      -29.646    -469.173     -47.031
  O      -29.197    -468.361     -45.966
  O      -26.728    -468.215     -46.591
  O      -28.272    -466.185     -47.125
  H      -26.351    -468.678     -45.819
  H      -28.828    -469.442     -47.706
  H      -30.418    -468.632     -47.593
  H      -30.078    -470.087     -46.623
  H      -27.739    -474.226     -45.741
  H      -29.362    -474.107     -45.103
  H      -27.990    -473.825     -44.058

 3  4  5  6  7  8  9  10  11  12  13  23  28  29  30  31  32 0
 6-311+G(2d,p)
 ****
 33  34 0
 6-311+G(2d,p)
 ****
 1  2  14  15  16  17  18  19  20  21  22  24  25  26 0
 3-21G
 ****
 27  35  36  37  38  39  40  41  42  43  44  45 0
 3-21G
 ****


