%nproc=1
%NoSave
%Mem=1900MB
#P OB98/GEN NMR

erre ene a

0 1
  C     -248.725      90.440    -766.866
  O     -248.263      91.519    -766.085
  H     -247.898      90.071    -767.481
  H     -249.527      90.772    -767.530
  H     -249.080      89.620    -766.237
  P     -249.219      92.117    -764.943
  C     -249.336      94.443    -766.055
  O     -250.065      93.298    -765.624
  C     -250.019      95.711    -765.555
  O     -249.300      96.879    -766.012
  C     -251.453      95.883    -766.047
  O     -252.340      95.033    -765.346
  C     -251.657      97.375    -765.798
  O     -251.970      97.627    -764.419
  C     -250.267      97.943    -766.167
  N     -250.214      98.509    -767.517
  C     -250.537      99.852    -767.640
  O     -250.896     100.549    -766.694
  N     -250.463     100.370    -768.907
  C     -250.178      99.674    -770.046
  O     -250.172     100.170    -771.163
  C     -249.874      98.247    -769.857
  C     -249.905      97.734    -768.626
  O     -248.555      92.480    -763.652
  O     -250.319      90.967    -764.738
  H     -252.872      97.291    -764.270
  H     -250.099      90.444    -763.944
  H     -250.706     101.346    -769.024
  H     -249.649      97.653    -770.738
  H     -249.691      96.690    -768.466
  H     -249.979      98.735    -765.458
  H     -252.479      97.790    -766.383
  H     -251.505      95.700    -767.129
  H     -249.987      95.701    -764.455
  H     -249.314      94.456    -767.149
  H     -248.316      94.376    -765.677
  P     -253.037      93.793    -766.078
  C     -255.272      95.029    -766.236
  O     -254.248      94.365    -766.963
  O     -253.395      92.651    -765.186
  O     -251.957      93.344    -767.176
  H     -251.522      92.518    -766.893
  H     -256.027      95.370    -766.914
  H     -254.855      95.866    -765.716
  H     -255.706      94.351    -765.531

 6  7  8  9  10  11  12  13  14  15  16  26  31  32  33  34  35 0
 6-311+G(2d,p)
 ****
 36  37 0
 6-311+G(2d,p)
 ****
 1  2  3  4  5  17  18  19  20  21  22  23  24  25 0
 3-21G
 ****
 27  28  29  30  38  39  40  41  42  43  44  45 0
 3-21G
 ****


