%nproc=1
%NoSave
%Mem=1900MB
#P OB98/GEN NMR

erre ene a

0 1
  C      -88.371      59.977     119.164
  O      -88.579      60.405     120.494
  H      -87.580      59.222     119.161
  H      -88.053      60.817     118.541
  H      -89.280      59.532     118.752
  P      -89.783      61.418     120.800
  C      -90.224      63.931     120.445
  O      -89.260      62.886     120.425
  C      -89.523      65.285     120.372
  O      -88.661      65.466     121.517
  C      -88.630      65.452     119.149
  O      -89.402      65.688     117.989
  C      -87.760      66.617     119.597
  O      -88.453      67.866     119.449
  C      -87.550      66.288     121.094
  N      -86.272      65.623     121.356
  C      -85.294      66.396     121.972
  O      -85.461      67.572     122.286
  N      -84.088      65.779     122.175
  C      -83.751      64.527     121.747
  O      -82.602      64.098     121.754
  C      -84.846      63.733     121.172
  C      -86.034      64.313     120.990
  O      -90.405      61.295     122.150
  O      -90.840      61.108     119.637
  H      -91.554      60.545     119.992
  H      -88.014      68.499     120.049
  H      -83.356      66.345     122.578
  H      -84.636      62.712     120.879
  H      -86.847      63.756     120.540
  H      -87.586      67.205     121.696
  H      -86.837      66.693     119.020
  H      -87.997      64.567     119.022
  H      -90.292      66.069     120.401
  H      -90.790      63.864     121.380
  H      -90.911      63.802     119.603
  P      -88.918      65.176     116.553
  C      -87.657      66.103     114.525
  O      -88.128      66.373     115.838
  O      -89.980      64.546     115.715
  O      -87.754      64.125     116.883
  H      -87.949      63.280     116.432
  H      -87.148      66.964     114.145
  H      -88.486      65.869     113.890
  H      -86.983      65.273     114.552

 6  7  8  9  10  11  12  13  14  15  16  27  31  32  33  34  35 0
 6-311+G(2d,p)
 ****
 36  37 0
 6-311+G(2d,p)
 ****
 1  2  3  4  5  17  18  19  20  21  22  23  24  25 0
 3-21G
 ****
 26  28  29  30  38  39  40  41  42  43  44  45 0
 3-21G
 ****


