%nproc=1
%NoSave
%Mem=1900MB
#P OB98/GEN NMR

erre ene a

0 1
  C      141.845    -601.582    -155.330
  O      141.825    -601.233    -153.960
  H      141.515    -602.621    -155.431
  H      142.860    -601.499    -155.719
  H      141.170    -600.944    -155.907
  P      142.001    -599.695    -153.551
  C      144.566    -599.414    -153.582
  O      143.341    -599.179    -154.266
  C      145.549    -598.260    -153.816
  O      144.901    -597.012    -153.402
  C      146.862    -598.379    -153.018
  O      147.896    -597.775    -153.803
  C      146.542    -597.537    -151.795
  O      147.695    -597.230    -151.055
  C      145.801    -596.380    -152.464
  N      145.074    -595.532    -151.527
  C      145.641    -594.302    -151.204
  O      146.694    -593.886    -151.682
  N      144.949    -593.552    -150.291
  C      143.783    -593.907    -149.678
  O      143.192    -593.183    -148.883
  C      143.247    -595.231    -150.037
  C      143.909    -595.970    -150.932
  O      141.908    -599.396    -152.089
  O      140.846    -598.949    -154.375
  H      140.075    -598.804    -153.801
  H      147.463    -596.688    -150.272
  H      145.344    -592.652    -150.047
  H      142.335    -595.552    -149.552
  H      143.546    -596.952    -151.221
  H      146.488    -595.763    -153.046
  H      145.876    -598.091    -151.126
  H      147.131    -599.418    -152.794
  H      145.742    -598.173    -154.891
  H      144.996    -600.345    -153.964
  H      144.366    -599.524    -152.512
  P      149.171    -598.581    -154.353
  C      150.889    -597.404    -152.827
  O      150.297    -598.640    -153.214
  O      149.687    -598.076    -155.664
  O      148.689    -600.105    -154.493
  H      149.119    -600.507    -155.273
  H      151.619    -597.581    -152.065
  H      150.132    -596.749    -152.450
  H      151.361    -596.953    -153.675

 6  7  8  9  10  11  12  13  14  15  16  27  31  32  33  34  35 0
 6-311+G(2d,p)
 ****
 36  37 0
 6-311+G(2d,p)
 ****
 1  2  3  4  5  17  18  19  20  21  22  23  24  25 0
 3-21G
 ****
 26  28  29  30  38  39  40  41  42  43  44  45 0
 3-21G
 ****


