%nproc=1
%NoSave
%Mem=1900MB
#P OB98/GEN NMR

erre ene a

0 1
  C     1024.767     283.027     249.066
  O     1024.636     284.313     248.500
  H     1025.413     283.063     249.944
  H     1023.778     282.671     249.368
  H     1025.179     282.333     248.327
  P     1025.987     285.038     248.026
  C     1025.855     286.897     249.826
  O     1025.869     286.584     248.441
  C     1025.728     288.404     250.017
  O     1026.905     289.043     249.456
  C     1024.488     289.033     249.362
  O     1023.700     289.708     250.342
  C     1025.049     290.073     248.397
  O     1024.297     291.278     248.376
  C     1026.472     290.291     248.910
  N     1027.136     293.820     245.301
  C     1026.420     293.837     246.437
  N     1026.359     292.906     247.408
  C     1027.189     291.878     247.131
  C     1028.008     291.738     246.023
  C     1027.951     292.759     245.067
  N     1028.641     292.720     243.877
  N     1028.698     290.545     246.084
  C     1028.280     289.960     247.182
  N     1027.351     290.720     247.844
  O     1025.850     285.062     246.430
  O     1027.252     284.367     248.459
  H     1024.422     291.703     249.252
  H     1026.677     284.745     246.025
  H     1025.784     294.715     246.581
  H     1028.574     288.981     247.533
  H     1026.509     291.044     249.714
  H     1025.055     289.646     247.381
  H     1023.871     288.299     248.829
  H     1025.734     288.616     251.094
  H     1026.801     286.557     250.288
  H     1028.446     293.439     243.197
  H     1029.157     291.881     243.648
  H     1025.023     286.370     250.304
  P     1022.350     288.972     250.812
  C     1021.099     289.283     248.552
  O     1021.146     289.578     249.941
  O     1022.092     289.588     252.271
  O     1022.445     287.484     250.839
  H     1021.584     288.957     252.818
  H     1020.244     289.756     248.116
  H     1021.030     288.224     248.414
  H     1021.988     289.647     248.080

 6  7  8  9  10  11  12  13  14  15  25  28  32  33  34  35 0
 6-311+G(2d,p)
 ****
 36  39  40 0
 6-311+G(2d,p)
 ****
 1  2  3  4  5  16  17  18  19  20  21  22  23  24 0
 3-21G
 ****
 26  27  29  30  31  37  38  41  42  43  44  45  46  47  48 0
 3-21G
 ****


