%nproc=1
%NoSave
%Mem=1900MB
#P OB98/GEN NMR

erre ene a

0 1
  C      717.708     226.978     297.538
  O      718.628     225.933     297.780
  H      716.866     226.599     296.949
  H      717.331     227.351     298.492
  H      718.189     227.794     297.001
  P      719.281     225.241     296.491
  C      719.707     222.861     297.421
  O      720.283     224.101     297.033
  C      720.329     222.378     298.730
  O      721.749     222.142     298.487
  C      720.215     223.379     299.892
  O      719.698     222.720     301.063
  C      721.638     223.809     300.166
  O      721.889     224.052     301.552
  C      722.451     222.628     299.636
  N      727.201     223.148     301.441
  C      726.164     222.412     301.874
  N      724.955     222.243     301.292
  C      724.879     222.903     300.129
  C      725.868     223.686     299.541
  C      727.074     223.817     300.262
  N      728.115     224.620     299.853
  N      725.432     224.229     298.353
  C      724.185     223.814     298.229
  N      723.798     223.029     299.288
  O      720.268     226.372     295.924
  O      718.298     224.808     295.456
  H      722.817     224.340     301.631
  H      719.989     226.616     295.022
  H      726.311     221.896     302.811
  H      723.503     224.084     297.433
  H      722.507     221.811     300.366
  H      721.846     224.726     299.600
  H      719.572     224.234     299.649
  H      719.890     221.411     298.997
  H      719.886     222.113     296.636
  H      728.886     224.741     300.485
  H      727.979     225.200     299.038
  H      718.627     222.988     297.541
  P      718.261     223.218     301.592
  C      718.893     224.145     303.934
  O      718.250     223.106     303.197
  O      717.273     222.052     301.109
  O      717.841     224.541     301.030
  H      716.559     222.422     300.565
  H      718.809     223.943     304.982
  H      718.425     225.081     303.713
  H      719.927     224.189     303.661

 6  7  8  9  10  11  12  13  14  15  25  28  32  33  34  35 0
 6-311+G(2d,p)
 ****
 36  39  40 0
 6-311+G(2d,p)
 ****
 1  2  3  4  5  16  17  18  19  20  21  22  23  24 0
 3-21G
 ****
 26  27  29  30  31  37  38  41  42  43  44  45  46  47  48 0
 3-21G
 ****


