%nproc=1
%NoSave
%Mem=1900MB
#P OB98/GEN NMR

erre ene a

0 1
  C     -705.551    -144.500     -72.761
  O     -706.489    -144.312     -73.803
  H     -706.026    -145.065     -71.958
  H     -705.233    -143.531     -72.366
  H     -704.682    -145.063     -73.121
  P     -705.940    -143.711     -75.188
  C     -706.801    -145.707     -76.615
  O     -705.683    -144.961     -76.158
  C     -706.343    -147.049     -77.179
  O     -705.625    -147.770     -76.139
  C     -707.497    -147.954     -77.654
  O     -707.052    -148.676     -78.812
  C     -707.664    -148.926     -76.500
  O     -708.281    -150.150     -76.868
  C     -706.216    -149.082     -76.037
  N     -706.113    -149.605     -74.679
  C     -706.341    -150.972     -74.498
  O     -706.539    -151.776     -75.403
  N     -706.341    -151.402     -73.189
  C     -706.159    -150.619     -72.080
  O     -706.185    -151.061     -70.938
  C     -705.928    -149.190     -72.342
  C     -705.922    -148.760     -73.603
  O     -704.464    -143.224     -74.808
  O     -706.766    -142.617     -75.784
  H     -704.478    -142.300     -74.498
  H     -709.227    -149.971     -77.012
  H     -706.513    -152.386     -73.044
  H     -705.794    -148.540     -71.492
  H     -705.770    -147.706     -73.824
  H     -705.664    -149.746     -76.728
  H     -708.276    -148.462     -75.712
  H     -708.418    -147.417     -77.887
  H     -705.632    -146.865     -77.989
  H     -707.317    -145.144     -77.403
  H     -707.495    -145.858     -75.777
  P     -707.332    -148.008     -80.247
  C     -704.797    -147.712     -80.824
  O     -706.046    -147.095     -80.562
  O     -708.485    -146.958     -79.882
  O     -707.692    -149.012     -81.295
  H     -708.377    -146.569     -79.004
  H     -704.060    -146.959     -81.011
  H     -704.885    -148.346     -81.681
  H     -704.503    -148.296     -79.977

 6  7  8  9  10  11  12  13  14  15  16  27  31  32  33  34  35 0
 6-311+G(2d,p)
 ****
 36  37 0
 6-311+G(2d,p)
 ****
 1  2  3  4  5  17  18  19  20  21  22  23  24  25 0
 3-21G
 ****
 26  28  29  30  38  39  40  41  42  43  44  45 0
 3-21G
 ****


