%nproc=1
%NoSave
%Mem=1900MB
#P OB98/GEN NMR

erre ene a

0 1
  C      580.844    -303.626     683.031
  O      580.258    -303.827     684.299
  H      580.935    -304.594     682.530
  H      581.843    -303.191     683.131
  H      580.209    -302.970     682.425
  P      580.072    -302.523     685.222
  C      577.655    -302.045     684.444
  O      579.011    -301.618     684.412
  C      576.872    -301.289     685.516
  O      576.595    -299.951     685.024
  C      575.531    -301.947     685.877
  O      575.301    -301.812     687.278
  C      574.518    -301.099     685.103
  O      573.223    -301.142     685.705
  C      575.175    -299.724     685.120
  N      571.509    -296.533     683.559
  C      571.785    -297.087     684.764
  N      572.788    -297.920     685.090
  C      573.601    -298.116     684.044
  C      573.457    -297.628     682.753
  C      572.340    -296.797     682.523
  N      572.050    -296.252     681.287
  N      574.473    -298.105     681.942
  C      575.222    -298.856     682.725
  N      574.729    -298.912     684.005
  O      581.333    -301.830     685.622
  O      579.182    -303.094     686.423
  H      572.873    -302.054     685.625
  H      578.466    -303.672     686.091
  H      571.080    -296.828     685.564
  H      576.114    -299.396     682.413
  H      574.969    -299.164     686.039
  H      574.422    -301.478     684.088
  H      575.482    -302.992     685.591
  H      577.512    -301.177     686.413
  H      577.603    -303.124     684.645
  H      571.251    -295.648     681.212
  H      572.677    -296.425     680.514
  H      577.218    -301.860     683.453
  P      576.011    -302.858     688.267
  C      577.790    -301.142     688.982
  O      577.549    -302.434     688.431
  O      575.765    -304.304     687.976
  O      575.387    -302.446     689.692
  H      575.249    -303.267     690.218
  H      578.845    -300.971     689.043
  H      577.362    -301.086     689.961
  H      577.344    -300.398     688.355

 6  7  8  9  10  11  12  13  14  15  25  28  32  33  34  35 0
 6-311+G(2d,p)
 ****
 36  39  40 0
 6-311+G(2d,p)
 ****
 1  2  3  4  5  16  17  18  19  20  21  22  23  24 0
 3-21G
 ****
 26  27  29  30  31  37  38  41  42  43  44  45  46  47 0
 3-21G
 ****
 48 0
 3-21G
 ****


