%nproc=1
%NoSave
%Mem=1900MB
#P OB98/GEN NMR

erre ene a

0 1
  C     -179.133    -120.445     169.758
  O     -178.080    -121.250     169.269
  H     -180.005    -121.064     169.984
  H     -178.803    -119.952     170.677
  H     -179.398    -119.681     169.023
  P     -178.382    -122.076     167.926
  C     -175.872    -121.771     167.371
  O     -176.975    -122.666     167.421
  C     -175.091    -121.832     168.682
  O     -174.726    -123.215     168.927
  C     -173.803    -120.990     168.684
  O     -173.750    -120.157     169.849
  C     -172.690    -122.018     168.772
  O     -171.573    -121.564     169.528
  C     -173.382    -123.206     169.425
  N     -169.083    -125.856     170.133
  C     -169.627    -124.835     170.830
  N     -170.823    -124.237     170.648
  C     -171.496    -124.819     169.640
  C     -171.082    -125.882     168.855
  C     -169.801    -126.395     169.121
  N     -169.222    -127.399     168.374
  N     -172.042    -126.199     167.912
  C     -173.001    -125.315     168.097
  N     -172.708    -124.451     169.121
  O     -178.716    -120.928     166.859
  O     -179.496    -123.060     168.039
  H     -170.875    -122.240     169.448
  H     -179.629    -121.053     166.537
  H     -169.020    -124.441     171.641
  H     -173.897    -125.226     167.497
  H     -173.428    -123.100     170.518
  H     -172.348    -122.260     167.758
  H     -173.705    -120.368     167.788
  H     -175.753    -121.523     169.500
  H     -176.235    -120.749     167.220
  H     -168.258    -127.625     168.558
  H     -169.708    -127.726     167.551
  H     -175.228    -122.044     166.529
  P     -174.156    -118.614     169.637
  C     -175.444    -118.426     171.885
  O     -174.367    -117.953     171.087
  O     -175.635    -118.708     169.032
  O     -173.240    -117.872     168.724
  H     -175.675    -118.240     168.176
  H     -175.458    -117.897     172.815
  H     -175.317    -119.472     172.072
  H     -176.368    -118.265     171.369

 6  7  8  9  10  11  12  13  14  15  25  28  32  33  34  35 0
 6-311+G(2d,p)
 ****
 36  39  40 0
 6-311+G(2d,p)
 ****
 1  2  3  4  5  16  17  18  19  20  21  22  23  24 0
 3-21G
 ****
 26  27  29  30  31  37  38  41  42  43  44  45  46  47  48 0
 3-21G
 ****


