%nproc=1
%NoSave
%Mem=1900MB
#P OB98/GEN NMR

erre ene a

0 1
  C     -159.209    1541.141     -50.413
  O     -159.554    1542.197     -49.528
  P     -158.399    1543.235     -49.136
  C     -158.896    1545.066     -50.948
  O     -158.921    1544.695     -49.554
  C     -159.829    1546.248     -51.181
  O     -161.200    1545.857     -50.968
  C     -159.601    1547.432     -50.242
  O     -158.437    1548.163     -50.613
  C     -160.910    1548.188     -50.425
  O     -160.883    1548.949     -51.658
  C     -161.930    1547.048     -50.535
  N     -166.429    1546.528     -48.159
  C     -166.115    1546.868     -49.420
  N     -164.891    1547.004     -49.974
  C     -163.936    1546.751     -49.063
  C     -164.111    1546.418     -47.740
  C     -165.422    1546.306     -47.272
  N     -165.764    1545.975     -45.992
  N     -162.880    1546.261     -47.117
  C     -161.990    1546.470     -48.054
  N     -162.579    1546.753     -49.272
  O     -157.250    1542.929     -50.215
  O     -157.903    1543.124     -47.730
  H     -161.790    1549.269     -51.822
  H     -156.367    1543.056     -49.810
  H     -166.969    1547.045     -50.101
  H     -160.920    1546.422     -47.924
  H     -162.699    1547.251     -51.261
  H     -161.119    1548.885     -49.606
  H     -159.502    1547.097     -49.206
  H     -159.699    1546.563     -52.230
  H     -159.240    1544.202     -51.541
  H     -166.714    1546.053     -45.688
  H     -165.002    1545.936     -45.290
  H     -157.868    1545.292     -51.236
  P     -157.660    1548.979     -49.473
  C     -156.293    1546.840     -49.109
  O     -156.239    1548.240     -49.347
  O     -158.439    1548.496     -48.151
  O     -157.607    1550.463     -49.682
  H     -158.532    1547.537     -48.122
  H     -155.296    1546.459     -49.082
  H     -156.867    1546.350     -49.905
  H     -156.764    1546.642     -48.131
  H     -160.068    1540.528     -50.588
  H     -158.431    1540.550     -49.977
  H     -158.868    1541.550     -51.341

 3  4  5  6  7  8  9  10  11  12  22  25  29  30  31  32 0
 6-311+G(2d,p)
 ****
 33  36  37 0
 6-311+G(2d,p)
 ****
 1  2  13  14  15  16  17  18  19  20  21  23  24  26 0
 3-21G
 ****
 27  28  34  35  38  39  40  41  42  43  44  45  46  47  48 0
 3-21G
 ****


