%nproc=1
%NoSave
%Mem=1900MB
#P OB98/GEN NMR

erre ene a

0 1
  C       -9.562    -897.990     -43.148
  O       -8.571    -897.040     -43.489
  P       -8.869    -895.470     -43.402
  C       -6.740    -894.700     -42.064
  O       -8.146    -894.890     -42.105
  C       -6.238    -894.960     -40.635
  O       -6.411    -896.330     -40.282
  C       -4.767    -894.600     -40.475
  O       -4.606    -893.270     -40.009
  C       -4.273    -895.650     -39.518
  O       -4.590    -895.290     -38.163
  C       -5.094    -896.890     -39.943
  N       -4.627    -897.670     -41.098
  C       -3.693    -898.700     -40.884
  O       -3.255    -899.010     -39.779
  N       -3.269    -899.360     -42.018
  C       -3.722    -899.130     -43.288
  O       -3.163    -899.530     -44.314
  C       -4.879    -898.240     -43.394
  C       -5.267    -897.550     -42.326
  O      -10.427    -895.430     -43.005
  O       -8.577    -894.690     -44.641
  H       -5.577    -895.360     -38.083
  H      -10.968    -895.270     -43.785
  H       -2.504    -900.000     -41.897
  H       -5.360    -898.140     -44.371
  H       -6.103    -896.860     -42.392
  H       -5.242    -897.580     -39.108
  H       -3.181    -895.760     -39.568
  H       -4.245    -894.720     -41.445
  H       -6.848    -894.350     -39.942
  H       -6.485    -893.680     -42.385
  H       -6.242    -895.380     -42.765
  P       -3.494    -892.320     -40.663
  C       -5.086    -890.410     -41.318
  O       -4.283    -891.480     -41.793
  O       -2.248    -893.000     -41.107
  O       -3.213    -891.250     -39.507
  H       -2.390    -891.510     -39.008
  H       -5.405    -889.810     -42.177
  H       -4.524    -889.780     -40.641
  H       -5.970    -890.810     -40.820
  H       -9.168    -898.977     -43.272
  H      -10.412    -897.863     -43.785
  H       -9.856    -897.849     -42.129

 3  4  5  6  7  8  9  10  11  12  13  23  28  29  30  31  32 0
 6-311+G(2d,p)
 ****
 33  34 0
 6-311+G(2d,p)
 ****
 1  2  14  15  16  17  18  19  20  21  22  24  25  26  27 0
 3-21G
 ****
 35  36  37  38  39  40  41  42  43  44  45 0
 3-21G
 ****


