%nproc=1
%NoSave
%Mem=1900MB
#P OB98/GEN NMR

erre ene a

0 1
  C      145.773     431.033     436.787
  O      147.183     431.048     436.859
  H      145.445     431.955     436.300
  H      145.350     430.990     437.790
  H      145.420     430.179     436.200
  P      147.953     429.694     437.225
  C      150.043     430.248     438.647
  O      149.515     430.054     437.343
  C      151.070     431.390     438.660
  O      152.163     431.044     437.762
  C      150.460     432.696     438.134
  O      151.110     433.845     438.693
  C      150.764     432.639     436.652
  O      150.769     433.927     436.026
  C      152.125     431.940     436.644
  N      154.806     431.683     432.303
  C      154.705     432.718     433.208
  N      155.414     433.845     432.911
  N      153.959     432.683     434.279
  C      153.252     431.528     434.402
  C      153.251     430.431     433.569
  C      154.108     430.482     432.405
  O      154.219     429.592     431.558
  N      152.396     429.456     434.020
  C      151.876     429.959     435.121
  N      152.380     431.200     435.410
  O      147.895     428.848     435.866
  O      147.388     428.919     438.380
  H      149.874     434.087     435.672
  H      148.009     427.894     436.051
  H      155.417     431.753     431.505
  H      151.153     429.458     435.759
  H      152.932     432.672     436.765
  H      149.978     432.057     436.164
  H      155.834     433.981     432.005
  H      149.392     432.770     438.320
  H      155.107     434.702     433.379
  H      151.504     431.496     439.664
  H      150.502     429.301     438.950
  H      149.227     430.458     439.359
  P      151.150     433.990     440.292
  C      150.812     436.618     440.481
  O      151.616     435.470     440.690
  O      152.385     433.079     440.731
  O      149.878     433.594     440.987
  H      152.071     432.324     441.280
  H      151.334     437.486     440.825
  H      149.895     436.515     441.023
  H      150.600     436.720     439.437

 6  7  8  9  10  11  12  13  14  15  26  29  33  34 0
 6-311+G(2d,p)
 ****
 36  38  39  40  41 0
 6-311+G(2d,p)
 ****
 1  2  3  4  5  16  17  18  19  20  21  22  23  24  25 0
 3-21G
 ****
 27  28  30  31  32  35  37  42  43  44  45  46  47 0
 3-21G
 ****
 48  49 0
 3-21G
 ****


