%nproc=1
%NoSave
%Mem=1900MB
#P OB98/GEN NMR

erre ene a

0 1
  C       16.664    -172.193     161.949
  O       16.929    -171.089     162.800
  P       15.938    -170.733     164.008
  C       14.339    -169.586     162.354
  O       15.100    -169.444     163.549
  C       13.363    -168.421     162.194
  O       12.783    -168.477     160.869
  C       12.217    -168.450     163.198
  O       11.889    -167.106     163.566
  C       11.048    -169.027     162.419
  O        9.791    -168.594     162.965
  C       11.349    -168.520     161.003
  N        7.130    -169.985     158.474
  C        7.322    -169.058     159.434
  N        8.465    -168.737     160.081
  C        9.494    -169.456     159.601
  C        9.450    -170.438     158.621
  C        8.196    -170.699     158.047
  N        8.004    -171.640     157.057
  N       10.707    -170.980     158.417
  C       11.492    -170.323     159.244
  N       10.807    -169.384     159.973
  O       16.591    -170.604     165.342
  O       14.846    -171.900     163.992
  H        9.821    -168.769     163.929
  H       14.599    -172.148     164.903
  H        6.438    -168.495     159.727
  H       12.549    -170.493     159.361
  H       10.962    -167.506     160.847
  H       11.079    -170.123     162.470
  H       12.448    -169.036     164.095
  H       13.925    -167.482     162.269
  H       13.777    -170.522     162.413
  H        7.097    -171.675     156.620
  H        8.822    -172.046     156.619
  H       15.018    -169.642     161.495
  P       11.987    -166.763     165.136
  C        9.414    -167.108     165.337
  O       10.521    -166.257     165.536
  O       13.131    -165.850     165.440
  O       12.116    -168.230     165.768
  H       11.721    -168.911     165.176
  H        8.506    -166.575     165.629
  H        9.508    -168.001     165.959
  H        9.335    -167.394     164.283
  H       17.434    -172.266     161.210
  H       15.719    -172.053     161.467
  H       16.639    -173.092     162.528

 3  4  5  6  7  8  9  10  11  12  22  25  29  30  31  32 0
 6-311+G(2d,p)
 ****
 33  36  37 0
 6-311+G(2d,p)
 ****
 1  2  13  14  15  16  17  18  19  20  21  23  24  26 0
 3-21G
 ****
 27  28  34  35  38  39  40  41  42  43  44  45  46  47  48 0
 3-21G
 ****


