%nproc=1
%NoSave
%Mem=1900MB
#P OB98/GEN NMR

erre ene a

0 1
  C     -363.796    -892.860    -667.726
  O     -364.881    -893.770    -667.511
  P     -366.132    -893.710    -668.526
  C     -365.731    -896.110    -669.396
  O     -365.868    -894.730    -669.729
  C     -365.821    -896.990    -670.659
  O     -367.196    -897.050    -671.127
  C     -364.949    -896.480    -671.804
  O     -364.105    -897.490    -672.371
  C     -365.960    -895.860    -672.776
  O     -365.492    -895.800    -674.125
  C     -367.231    -896.690    -672.527
  N     -368.440    -895.960    -672.899
  C     -369.483    -896.720    -673.428
  O     -369.394    -897.920    -673.678
  N     -370.612    -896.020    -673.772
  C     -370.789    -894.670    -673.661
  O     -371.827    -894.110    -674.001
  C     -369.641    -893.910    -673.141
  C     -368.538    -894.590    -672.794
  O     -366.583    -892.360    -668.930
  O     -367.281    -894.480    -667.686
  H     -366.215    -895.470    -674.689
  H     -368.125    -894.000    -667.851
  H     -371.386    -896.560    -674.136
  H     -369.719    -892.840    -673.079
  H     -367.660    -894.060    -672.421
  H     -367.209    -897.620    -673.116
  H     -366.140    -894.830    -672.439
  H     -364.255    -895.710    -671.481
  H     -365.521    -898.010    -670.374
  H     -366.511    -896.400    -668.702
  H     -364.778    -896.270    -668.876
  P     -362.545    -897.640    -672.086
  C     -363.147    -899.020    -669.982
  O     -362.363    -897.980    -670.533
  O     -361.687    -896.500    -672.588
  O     -362.141    -898.990    -672.845
  H     -361.281    -898.900    -673.259
  H     -363.198    -898.880    -668.885
  H     -362.728    -900.000    -670.179
  H     -364.195    -898.980    -670.353
  H     -363.046    -893.017    -666.980
  H     -364.156    -891.854    -667.664
  H     -363.376    -893.029    -668.695

 3  4  5  6  7  8  9  10  11  12  13  23  28  29  30  31  32 0
 6-311+G(2d,p)
 ****
 33  34 0
 6-311+G(2d,p)
 ****
 1  2  14  15  16  17  18  19  20  21  22  24  25  26  27 0
 3-21G
 ****
 35  36  37  38  39  40  41  42  43  44  45 0
 3-21G
 ****


