%nproc=1
%NoSave
%Mem=1900MB
#P OB98/GEN NMR

erre ene a

0 1
  C      -99.439    -386.870     260.355
  O     -100.399    -385.854     260.595
  P     -100.608    -385.245     262.070
  C     -101.355    -386.251     264.333
  O     -100.926    -386.515     263.001
  C     -102.677    -386.970     264.598
  O     -102.465    -388.390     264.610
  C     -103.328    -386.630     265.935
  O     -103.946    -385.357     265.898
  C     -104.267    -387.810     266.110
  O     -105.458    -387.621     265.336
  C     -103.438    -388.972     265.513
  N     -102.787    -389.777     266.540
  C     -103.565    -390.748     267.166
  O     -104.744    -390.916     266.867
  N     -102.984    -391.559     268.131
  C     -101.744    -391.387     268.439
  N     -101.200    -392.251     269.341
  C     -100.888    -390.338     267.851
  C     -101.467    -389.577     266.918
  O     -101.595    -384.140     262.161
  O      -99.137    -384.828     262.551
  H     -105.932    -386.856     265.708
  H      -98.882    -383.907     262.286
  H      -99.854    -390.228     268.166
  H     -100.901    -388.803     266.416
  H     -104.065    -389.622     264.915
  H     -104.570    -387.980     267.149
  H     -102.571    -386.645     266.735
  H     -103.364    -386.736     263.773
  H     -101.766    -393.064     269.596
  H     -101.505    -385.174     264.443
  H     -100.198    -392.373     269.432
  H     -100.582    -386.585     265.030
  P     -104.341    -384.673     267.302
  C     -105.717    -385.681     269.253
  O     -105.597    -385.522     267.845
  O     -104.962    -383.263     266.856
  O     -103.204    -384.525     268.253
  H     -104.315    -382.556     266.996
  H     -106.725    -386.052     269.468
  H     -105.582    -384.718     269.766
  H     -104.985    -386.404     269.616
  H      -99.454    -387.137     259.319
  H      -99.673    -387.729     260.949
  H      -98.466    -386.510     260.616

 3  4  5  6  7  8  9  10  11  12  13  23  27  28  29  30  32 0
 6-311+G(2d,p)
 ****
 34  35 0
 6-311+G(2d,p)
 ****
 1  2  14  15  16  17  18  19  20  21  22  24  25  26 0
 3-21G
 ****
 31  33  36  37  38  39  40  41  42  43  44  45  46 0
 3-21G
 ****


