%nproc=1
%NoSave
%Mem=1900MB
#P OB98/GEN NMR

erre ene a

0 1
  C       42.136    -166.797    -121.354
  O       41.257    -166.560    -122.436
  H       41.799    -166.212    -120.496
  H       43.153    -166.489    -121.611
  H       42.125    -167.855    -121.079
  P       41.559    -167.275    -123.837
  C       42.372    -165.100    -124.968
  O       42.715    -166.412    -124.537
  C       43.224    -164.694    -126.168
  O       44.624    -164.864    -125.874
  C       42.949    -165.506    -127.434
  O       41.802    -165.013    -128.106
  C       44.232    -165.257    -128.207
  O       44.198    -163.939    -128.789
  C       45.290    -165.308    -127.088
  N       49.072    -168.489    -128.243
  C       48.741    -167.269    -128.798
  N       49.510    -166.849    -129.826
  N       47.743    -166.531    -128.391
  C       47.018    -167.107    -127.403
  C       47.236    -168.317    -126.784
  C       48.388    -169.094    -127.199
  O       48.730    -170.169    -126.716
  N       46.239    -168.613    -125.888
  C       45.449    -167.556    -125.927
  N       45.874    -166.615    -126.838
  O       40.373    -167.528    -124.716
  O       42.309    -168.630    -123.433
  H       43.578    -163.973    -129.541
  H       41.678    -169.366    -123.334
  H       49.849    -169.017    -128.604
  H       44.563    -167.418    -125.319
  H       46.123    -164.620    -127.277
  H       44.382    -165.967    -129.022
  H       50.195    -167.437    -130.281
  H       42.868    -166.578    -127.215
  H       49.247    -165.984    -130.285
  H       43.061    -163.624    -126.350
  H       42.552    -164.421    -124.127
  H       41.312    -165.049    -125.235
  P       40.535    -165.955    -128.408
  C       41.336    -166.385    -130.830
  O       41.013    -166.951    -129.571
  O       39.269    -165.225    -128.695
  O       40.458    -166.932    -127.148
  H       39.959    -166.540    -126.387
  H       41.636    -167.161    -131.503
  H       42.137    -165.686    -130.712
  H       40.479    -165.882    -131.225

 6  7  8  9  10  11  12  13  14  15  26  29  33  34 0
 6-311+G(2d,p)
 ****
 36  38  39  40  41 0
 6-311+G(2d,p)
 ****
 1  2  3  4  5  16  17  18  19  20  21  22  23  24  25 0
 3-21G
 ****
 27  28  30  31  32  35  37  42  43  44  45  46  47 0
 3-21G
 ****
 48  49 0
 3-21G
 ****


