%nproc=1
%NoSave
%Mem=1900MB
#P OB98/GEN NMR

erre ene a

0 1
  C     -344.875    -274.313     486.113
  O     -344.043    -275.097     486.970
  P     -344.160    -274.931     488.555
  C     -345.967    -275.604     490.281
  O     -345.231    -275.981     489.123
  C     -347.017    -276.672     490.606
  O     -347.841    -276.976     489.453
  C     -346.399    -278.010     490.998
  O     -345.729    -278.062     492.242
  C     -347.555    -278.974     490.788
  O     -348.434    -278.995     491.909
  C     -348.256    -278.352     489.558
  N     -347.980    -279.086     488.322
  C     -349.075    -279.344     487.503
  O     -350.228    -279.029     487.795
  N     -348.806    -280.018     486.340
  C     -347.583    -280.477     485.945
  O     -347.405    -281.098     484.904
  C     -346.471    -280.195     486.860
  C     -346.713    -279.525     487.989
  O     -344.315    -273.534     489.051
  O     -342.769    -275.548     489.080
  H     -348.718    -278.071     492.076
  H     -342.446    -274.982     489.808
  H     -349.589    -280.208     485.735
  H     -345.485    -280.549     486.582
  H     -345.903    -279.304     488.676
  H     -349.346    -278.343     489.703
  H     -347.202    -280.002     490.639
  H     -345.638    -278.262     490.243
  H     -347.672    -276.290     491.386
  H     -346.450    -274.640     490.117
  H     -345.273    -275.466     491.116
  P     -344.146    -278.280     492.381
  C     -342.090    -277.189     491.240
  O     -343.399    -277.015     491.734
  O     -343.611    -279.633     492.053
  O     -343.931    -278.015     493.954
  H     -343.200    -278.587     494.264
  H     -341.736    -276.227     490.855
  H     -342.076    -277.919     490.427
  H     -341.418    -277.511     492.042
  H     -344.663    -274.554     485.092
  H     -344.683    -273.274     486.282
  H     -345.903    -274.524     486.323

 3  4  5  6  7  8  9  10  11  12  13  23  28  29  30  31  32 0
 6-311+G(2d,p)
 ****
 33  34 0
 6-311+G(2d,p)
 ****
 1  2  14  15  16  17  18  19  20  21  22  24  25  26  27 0
 3-21G
 ****
 35  36  37  38  39  40  41  42  43  44  45 0
 3-21G
 ****


