%nproc=1
%NoSave
%Mem=1900MB
#P OB98/GEN NMR

erre ene a

0 1
  C     -347.085      38.331     131.643
  O     -347.486      38.172     133.003
  P     -346.952      36.882     133.787
  C     -344.436      37.636     133.774
  O     -345.587      37.289     134.523
  C     -343.550      38.636     134.544
  O     -344.250      39.906     134.616
  C     -343.250      38.255     135.991
  O     -342.120      39.010     136.436
  C     -344.493      38.748     136.704
  O     -344.279      38.883     138.105
  C     -344.813      40.059     135.947
  N     -346.260      40.350     135.853
  C     -346.950      40.665     137.027
  O     -346.424      40.715     138.140
  N     -348.295      40.887     136.897
  C     -348.996      40.868     135.727
  O     -350.218      40.993     135.676
  C     -348.203      40.673     134.510
  C     -346.898      40.414     134.626
  O     -346.488      35.898     132.617
  O     -347.969      36.256     134.681
  H     -344.961      39.511     138.436
  H     -347.133      35.172     132.507
  H     -348.817      41.050     137.746
  H     -348.717      40.717     133.554
  H     -346.299      40.246     133.734
  H     -344.338      40.919     136.429
  H     -345.306      38.026     136.567
  H     -343.080      37.189     136.158
  H     -342.620      38.797     133.983
  H     -344.732      38.057     132.809
  H     -343.857      36.729     133.555
  P     -340.806      38.203     136.883
  C     -338.922      37.735     135.195
  O     -339.614      38.722     135.939
  O     -340.950      36.722     136.987
  O     -340.444      38.868     138.296
  H     -339.853      38.270     138.798
  H     -338.546      38.189     134.273
  H     -339.572      36.897     134.939
  H     -338.073      37.374     135.782
  H     -347.512      39.229     131.248
  H     -347.424      37.493     131.071
  H     -346.018      38.391     131.590

 3  4  5  6  7  8  9  10  11  12  13  23  28  29  30  31  32 0
 6-311+G(2d,p)
 ****
 33  34 0
 6-311+G(2d,p)
 ****
 1  2  14  15  16  17  18  19  20  21  22  24  25  26  27 0
 3-21G
 ****
 35  36  37  38  39  40  41  42  43  44  45 0
 3-21G
 ****


