%nproc=1
%NoSave
%Mem=1900MB
#P OB98/GEN NMR

erre ene a

0 1
  C     -241.403    -351.230    -114.161
  O     -241.191    -351.554    -112.803
  H     -240.913    -350.278    -114.376
  H     -242.474    -351.123    -114.349
  H     -240.984    -351.999    -114.816
  P     -241.553    -353.046    -112.342
  C     -239.592    -353.524    -110.717
  O     -240.975    -353.233    -110.854
  C     -238.758    -352.270    -110.984
  O     -239.209    -351.213    -110.097
  C     -237.255    -352.467    -110.750
  O     -236.533    -351.740    -111.747
  C     -237.024    -351.834    -109.388
  O     -235.680    -351.390    -109.211
  C     -238.054    -350.710    -109.399
  N     -236.538    -347.953    -105.464
  C     -235.993    -348.084    -106.726
  N     -234.868    -347.379    -106.976
  N     -236.504    -348.840    -107.661
  C     -237.648    -349.458    -107.282
  C     -238.285    -349.415    -106.064
  C     -237.693    -348.597    -105.027
  O     -238.116    -348.459    -103.885
  N     -239.405    -350.208    -106.061
  C     -239.442    -350.729    -107.273
  N     -238.403    -350.299    -108.051
  O     -240.582    -353.948    -113.238
  O     -242.981    -353.442    -112.518
  H     -235.090    -352.101    -109.543
  H     -241.110    -354.501    -113.844
  H     -236.096    -347.368    -104.776
  H     -240.189    -351.423    -107.632
  H     -237.694    -349.819    -109.928
  H     -237.248    -352.563    -108.600
  H     -234.447    -346.741    -106.319
  H     -236.950    -353.514    -110.772
  H     -234.469    -347.430    -107.906
  H     -238.954    -351.931    -112.007
  H     -239.320    -354.302    -111.436
  H     -239.398    -353.890    -109.704
  P     -236.317    -352.465    -113.163
  C     -235.905    -350.238    -114.418
  O     -235.398    -351.520    -114.080
  O     -237.761    -352.364    -113.847
  O     -235.864    -353.883    -113.052
  H     -238.186    -353.241    -113.856
  H     -235.193    -349.722    -115.027
  H     -236.082    -349.677    -113.524
  H     -236.823    -350.348    -114.957

 6  7  8  9  10  11  12  13  14  15  26  29  33  34 0
 6-311+G(2d,p)
 ****
 36  38  39  40  41 0
 6-311+G(2d,p)
 ****
 1  2  3  4  5  16  17  18  19  20  21  22  23  24  25 0
 3-21G
 ****
 27  28  30  31  32  35  37  42  43  44  45  46  47 0
 3-21G
 ****
 48  49 0
 3-21G
 ****


