%nproc=1
%NoSave
%Mem=1900MB
#P OB98/GEN NMR

erre ene a

0 1
  C      223.538     -48.061      22.901
  O      224.382     -48.473      21.839
  P      223.958     -49.673      20.872
  C      222.415     -48.299      19.253
  O      222.547     -49.318      20.218
  C      221.915     -48.918      17.941
  O      222.983     -49.636      17.292
  C      220.768     -49.896      18.184
  O      219.516     -49.249      18.021
  C      221.030     -50.976      17.152
  O      220.529     -50.574      15.864
  C      222.577     -51.022      17.136
  N      223.259     -51.818      18.173
  C      224.563     -52.256      17.959
  O      225.212     -51.995      16.951
  N      225.097     -53.041      18.950
  C      224.481     -53.377      20.120
  O      224.863     -54.262      20.876
  C      223.230     -52.666      20.402
  C      222.674     -51.951      19.425
  O      223.606     -50.853      21.893
  O      224.987     -50.085      19.872
  H      219.624     -50.239      16.000
  H      224.355     -51.471      21.976
  H      225.989     -53.477      18.738
  H      222.776     -52.793      21.376
  H      221.727     -51.446      19.599
  H      222.947     -51.371      16.166
  H      220.510     -51.898      17.406
  H      220.852     -50.339      19.185
  H      221.593     -48.112      17.270
  H      223.378     -47.801      19.098
  H      221.711     -47.538      19.604
  P      218.200     -49.903      18.654
  C      218.171     -48.088      20.463
  O      218.219     -49.475      20.200
  O      218.016     -51.362      18.395
  O      217.015     -49.031      18.019
  H      216.633     -49.502      17.249
  H      218.008     -47.939      21.533
  H      217.352     -47.619      19.909
  H      219.121     -47.626      20.182
  H      223.997     -47.250      23.427
  H      223.384     -48.880      23.572
  H      222.597     -47.742      22.505

 3  4  5  6  7  8  9  10  11  12  13  23  28  29  30  31  32 0
 6-311+G(2d,p)
 ****
 33  34 0
 6-311+G(2d,p)
 ****
 1  2  14  15  16  17  18  19  20  21  22  24  25  26  27 0
 3-21G
 ****
 35  36  37  38  39  40  41  42  43  44  45 0
 3-21G
 ****


