%nproc=1
%NoSave
%Mem=1900MB
#P OB98/GEN NMR

erre ene a

0 1
  C     -267.867     308.222      71.768
  O     -269.100     307.818      71.200
  H     -267.114     307.459      71.541
  H     -267.951     308.322      72.854
  H     -267.548     309.170      71.330
  P     -270.428     308.622      71.626
  C     -271.685     308.149      69.423
  O     -271.627     307.911      70.831
  C     -273.115     308.011      68.895
  O     -273.572     306.650      69.012
  C     -274.140     308.843      69.655
  O     -273.996     310.233      69.526
  C     -275.446     308.181      69.232
  O     -275.907     308.661      67.971
  C     -275.015     306.697      69.111
  N     -275.502     305.881      70.216
  C     -276.664     305.154      69.974
  O     -277.277     305.192      68.903
  N     -277.125     304.400      71.014
  C     -276.573     304.344      72.268
  O     -277.054     303.655      73.164
  C     -275.378     305.159      72.476
  C     -274.894     305.884      71.459
  O     -270.366     310.110      71.442
  O     -270.679     308.169      73.142
  H     -276.117     309.610      68.086
  H     -271.319     308.778      73.591
  H     -277.952     303.851      70.853
  H     -274.918     305.148      73.461
  H     -274.007     306.498      71.591
  H     -275.402     306.266      68.176
  H     -276.246     308.345      69.956
  H     -274.020     308.623      70.727
  H     -273.112     308.275      67.828
  H     -271.045     307.410      68.935
  H     -271.295     309.151      69.206
  P     -274.453     311.284      70.640
  C     -272.860     313.191      69.812
  O     -274.191     312.766      70.081
  O     -274.047     310.981      72.045
  O     -276.064     311.168      70.559
  H     -276.404     311.306      71.463
  H     -272.873     314.197      69.449
  H     -272.424     312.551      69.074
  H     -272.282     313.144      70.711

 6  7  8  9  10  11  12  13  14  15  16  26  31  32  33  34  35 0
 6-311+G(2d,p)
 ****
 36  37 0
 6-311+G(2d,p)
 ****
 1  2  3  4  5  17  18  19  20  21  22  23  24  25 0
 3-21G
 ****
 27  28  29  30  38  39  40  41  42  43  44  45 0
 3-21G
 ****


