%nproc=1
%NoSave
%Mem=1900MB
#P OB98/GEN NMR

erre ene a

0 1
  C      -23.882       3.960    -318.995
  O      -24.028       4.072    -320.399
  P      -22.879       3.459    -321.334
  C      -21.700       5.734    -321.760
  O      -21.594       4.419    -321.233
  C      -20.435       6.110    -322.535
  O      -20.642       7.378    -323.216
  C      -19.197       6.270    -321.644
  O      -18.031       5.848    -322.374
  C      -19.092       7.770    -321.453
  O      -17.761       8.165    -321.123
  C      -19.582       8.269    -322.810
  N      -18.330      13.038    -321.694
  C      -17.516      11.939    -321.887
  N      -16.196      12.123    -321.666
  N      -17.955      10.770    -322.267
  C      -19.300      10.732    -322.443
  C      -20.210      11.758    -322.298
  C      -19.707      13.045    -321.863
  O      -20.382      14.049    -321.648
  N      -21.482      11.346    -322.595
  C      -21.355      10.063    -322.883
  N      -20.056       9.636    -322.767
  O      -23.437       3.735    -322.813
  O      -22.614       2.006    -321.122
  H      -17.749       9.141    -321.104
  H      -23.764       2.900    -323.200
  H      -17.946      13.916    -321.389
  H      -22.166       9.400    -323.153
  H      -18.792       8.212    -323.570
  H      -19.753       8.090    -320.641
  H      -15.802      12.982    -321.307
  H      -19.246       5.726    -320.694
  H      -15.582      11.324    -321.760
  H      -20.260       5.357    -323.311
  H      -21.839       6.436    -320.940
  H      -22.575       5.795    -322.418
  P      -16.844       5.216    -321.495
  C      -15.132       7.123    -321.939
  O      -15.954       6.451    -321.008
  O      -15.924       4.492    -322.587
  O      -17.305       4.278    -320.428
  H      -15.423       3.761    -322.181
  H      -15.474       8.159    -322.031
  H      -15.148       6.653    -322.925
  H      -14.101       7.125    -321.571
  H      -24.722       4.413    -318.512
  H      -22.985       4.456    -318.689
  H      -23.829       2.926    -318.723

 3  4  5  6  7  8  9  10  11  12  23  26  30  31 0
 6-311+G(2d,p)
 ****
 33  35  36  37  38 0
 6-311+G(2d,p)
 ****
 1  2  13  14  15  16  17  18  19  20  21  22  24  25 0
 3-21G
 ****
 27  28  29  32  34  39  40  41  42  43  44  45  46  47  48  49 0
 3-21G
 ****


