%nproc=1
%NoSave
%Mem=1900MB
#P OB98/GEN NMR

erre ene a

0 1
  C       84.120    -279.271      31.881
  O       82.897    -279.812      32.396
  P       82.228    -281.043      31.610
  C       81.346    -281.421      29.188
  O       81.605    -280.499      30.237
  C       80.271    -280.877      28.241
  O       79.004    -280.710      28.913
  C       80.600    -279.511      27.660
  O       81.475    -279.618      26.541
  C       79.225    -279.039      27.211
  O       78.881    -279.650      25.949
  C       78.316    -279.580      28.325
  N       76.784    -274.782      29.292
  C       77.010    -275.443      28.132
  N       77.432    -276.715      27.957
  C       77.617    -277.321      29.139
  C       77.431    -276.775      30.405
  C       76.998    -275.444      30.461
  N       76.769    -274.777      31.643
  N       77.734    -277.701      31.384
  C       78.077    -278.790      30.726
  N       78.030    -278.604      29.369
  O       80.934    -281.374      32.493
  O       83.122    -282.236      31.479
  H       79.520    -279.317      25.290
  H       80.758    -282.333      32.479
  H       76.818    -274.877      27.222
  H       78.362    -279.726      31.182
  H       77.353    -279.939      27.938
  H       79.179    -277.953      27.062
  H       80.999    -278.838      28.435
  H       80.135    -281.601      27.426
  H       81.027    -282.381      29.606
  H       76.429    -273.828      31.598
  H       76.900    -275.270      32.511
  H       82.280    -281.617      28.647
  P       82.959    -279.031      26.714
  C       83.914    -276.632      27.021
  O       82.773    -277.471      27.028
  O       83.531    -279.067      25.221
  O       83.822    -279.796      27.666
  H       84.501    -279.191      25.232
  H       83.586    -275.591      26.946
  H       84.566    -276.856      26.171
  H       84.471    -276.759      27.953
  H       84.443    -278.463      32.504
  H       83.960    -278.912      30.886
  H       84.870    -280.034      31.869

 3  4  5  6  7  8  9  10  11  12  22  25  29  30  31  32 0
 6-311+G(2d,p)
 ****
 33  36  37 0
 6-311+G(2d,p)
 ****
 1  2  13  14  15  16  17  18  19  20  21  23  24  26 0
 3-21G
 ****
 27  28  34  35  38  39  40  41  42  43  44  45  46  47  48 0
 3-21G
 ****


