%nproc=1
%NoSave
%Mem=1900MB
#P OB98/GEN NMR

erre ene a

0 1
  C     -195.212    -196.152     -72.149
  O     -195.637    -195.010     -71.436
  H     -196.025    -196.480     -72.803
  H     -194.976    -196.962     -71.454
  H     -194.339    -195.925     -72.767
  P     -194.571    -194.218     -70.541
  C     -194.682    -192.148     -72.080
  O     -193.861    -193.151     -71.503
  C     -193.877    -190.871     -72.343
  O     -193.548    -190.257     -71.059
  C     -192.546    -191.103     -73.086
  O     -192.281    -189.918     -73.851
  C     -191.586    -191.234     -71.917
  O     -190.240    -191.186     -72.315
  C     -192.114    -190.096     -71.032
  N     -191.622    -190.093     -69.660
  C     -190.372    -189.531     -69.423
  O     -189.654    -189.033     -70.288
  N     -189.946    -189.558     -68.120
  C     -190.637    -190.064     -67.059
  O     -190.218    -190.031     -65.909
  C     -191.947    -190.651     -67.374
  C     -192.376    -190.634     -68.637
  O     -193.640    -195.064     -69.739
  O     -195.482    -193.293     -69.601
  H     -195.543    -193.690     -68.712
  H     -190.089    -191.856     -73.016
  H     -189.045    -189.150     -67.929
  H     -192.517    -191.072     -66.557
  H     -193.344    -191.050     -68.898
  H     -191.891    -189.130     -71.494
  H     -191.720    -192.202     -71.431
  H     -192.572    -191.970     -73.751
  H     -194.511    -190.157     -72.882
  H     -195.499    -191.933     -71.384
  H     -195.104    -192.526     -73.018
  P     -192.065    -189.925     -75.442
  C     -193.778    -187.999     -75.688
  O     -193.373    -189.292     -76.125
  O     -191.684    -191.258     -75.996
  O     -190.923    -188.838     -75.717
  H     -190.452    -189.061     -76.541
  H     -194.656    -187.701     -76.222
  H     -192.992    -187.297     -75.874
  H     -193.990    -188.027     -74.640

 6  7  8  9  10  11  12  13  14  15  16  27  31  32  33  34  35 0
 6-311+G(2d,p)
 ****
 36  37 0
 6-311+G(2d,p)
 ****
 1  2  3  4  5  17  18  19  20  21  22  23  24  25 0
 3-21G
 ****
 26  28  29  30  38  39  40  41  42  43  44  45 0
 3-21G
 ****


