%nproc=1
%NoSave
%Mem=1900MB
#P OB98/GEN NMR

erre ene a

0 1
  C      425.974    -463.704     -34.611
  O      426.800    -463.066     -35.562
  H      426.357    -463.538     -33.601
  H      424.966    -463.282     -34.680
  H      425.920    -464.776     -34.818
  P      428.350    -463.474     -35.547
  C      428.180    -463.101     -38.106
  O      428.973    -462.958     -36.936
  C      428.717    -462.201     -39.214
  O      430.090    -462.544     -39.514
  C      427.978    -462.312     -40.539
  O      426.758    -461.582     -40.532
  C      428.999    -461.692     -41.486
  O      428.917    -460.257     -41.409
  C      430.330    -462.173     -40.897
  N      433.608    -463.701     -44.543
  C      433.272    -462.471     -44.091
  N      432.386    -462.140     -43.129
  C      431.827    -463.239     -42.599
  C      432.073    -464.555     -42.955
  C      433.002    -464.770     -43.984
  N      433.331    -466.028     -44.446
  N      431.324    -465.417     -42.180
  C      430.635    -464.639     -41.367
  N      430.902    -463.309     -41.587
  O      428.321    -465.066     -35.724
  O      429.102    -463.076     -34.322
  H      427.978    -460.023     -41.548
  H      429.046    -465.457     -35.202
  H      433.784    -461.637     -44.562
  H      429.945    -464.990     -40.612
  H      431.078    -461.370     -40.884
  H      428.841    -461.976     -42.528
  H      427.816    -463.363     -40.817
  H      428.703    -461.168     -38.847
  H      427.147    -462.813     -37.882
  H      434.135    -466.131     -45.039
  H      432.872    -466.828     -44.015
  H      428.197    -464.146     -38.418
  P      425.456    -462.308     -41.125
  C      424.237    -460.440     -39.802
  O      424.265    -461.245     -40.978
  O      425.114    -463.409     -40.009
  O      425.632    -462.921     -42.476
  H      424.621    -464.147     -40.415
  H      423.394    -459.782     -39.840
  H      425.137    -459.864     -39.743
  H      424.159    -461.070     -38.940

 6  7  8  9  10  11  12  13  14  15  25  28  32  33  34  35 0
 6-311+G(2d,p)
 ****
 36  39  40 0
 6-311+G(2d,p)
 ****
 1  2  3  4  5  16  17  18  19  20  21  22  23  24 0
 3-21G
 ****
 26  27  29  30  31  37  38  41  42  43  44  45  46  47  48 0
 3-21G
 ****


