%nproc=1
%NoSave
%Mem=1900MB
#P OB98/GEN NMR

erre ene a

0 1
  C       56.728     -57.018    -188.312
  O       55.804     -56.083    -187.793
  H       56.766     -56.903    -189.397
  H       56.411     -58.037    -188.081
  H       57.728     -56.836    -187.908
  P       55.560     -56.048    -186.208
  C       54.262     -54.436    -184.647
  O       54.644     -54.746    -185.979
  C       53.338     -53.223    -184.631
  O       54.030     -52.030    -185.063
  C       52.133     -53.323    -185.563
  O       51.125     -54.204    -185.102
  C       51.679     -51.873    -185.557
  O       51.005     -51.582    -184.321
  C       53.037     -51.138    -185.644
  N       53.402     -50.790    -187.018
  C       52.599     -49.834    -187.655
  O       51.634     -49.337    -187.075
  N       52.886     -49.489    -188.954
  C       53.874     -50.064    -189.568
  N       54.109     -49.688    -190.858
  C       54.731     -51.086    -188.943
  C       54.446     -51.395    -187.679
  O       56.785     -56.129    -185.354
  O       54.514     -57.227    -185.937
  H       50.388     -52.318    -184.155
  H       54.337     -57.257    -184.964
  H       55.524     -51.556    -189.507
  H       55.029     -52.143    -187.153
  H       53.029     -50.224    -185.036
  H       50.986     -51.636    -186.367
  H       52.445     -53.585    -186.581
  H       53.028     -53.057    -183.590
  H       53.503     -48.985    -191.260
  H       55.170     -54.245    -184.068
  H       54.809     -50.136    -191.434
  H       53.728     -55.282    -184.205
  P       50.083     -54.755    -186.198
  C       48.083     -56.415    -185.941
  O       49.396     -56.051    -185.552
  O       51.034     -55.342    -187.338
  O       49.115     -53.740    -186.717
  H       51.133     -54.705    -188.068
  H       47.787     -57.298    -185.414
  H       48.063     -56.605    -186.994
  H       47.408     -55.618    -185.709

 6  7  8  9  10  11  12  13  14  15  16  26  30  31  32  33  35 0
 6-311+G(2d,p)
 ****
 37  38 0
 6-311+G(2d,p)
 ****
 1  2  3  4  5  17  18  19  20  21  22  23  24  25 0
 3-21G
 ****
 27  28  29  34  36  39  40  41  42  43  44  45  46 0
 3-21G
 ****


