%nproc=1
%NoSave
%Mem=1900MB
#P OB98/GEN NMR

erre ene a

0 1
  C       52.971     -61.489    -190.676
  O       54.093     -61.636    -189.831
  H       52.075     -61.425    -190.055
  H       52.876     -62.353    -191.338
  H       53.056     -60.573    -191.266
  P       55.540     -61.818    -190.495
  C       56.979     -60.815    -188.601
  O       56.584     -61.997    -189.289
  C       55.914     -60.425    -187.568
  O       55.765     -61.533    -186.648
  C       56.306     -59.177    -186.764
  O       55.296     -58.171    -186.774
  C       56.732     -59.751    -185.419
  O       56.596     -58.858    -184.333
  C       55.899     -61.031    -185.305
  N       56.488     -62.044    -184.433
  C       56.089     -62.051    -183.099
  O       55.272     -61.281    -182.603
  N       56.673     -63.011    -182.312
  C       57.598     -63.927    -182.713
  O       58.082     -64.765    -181.961
  C       58.001     -63.851    -184.125
  C       57.438     -62.928    -184.907
  O       55.922     -60.786    -191.502
  O       55.488     -63.281    -191.144
  H       55.661     -58.562    -184.318
  H       55.400     -63.204    -192.114
  H       56.380     -63.036    -181.348
  H       58.744     -64.556    -184.473
  H       57.711     -62.846    -185.955
  H       54.901     -60.808    -184.923
  H       57.793     -60.022    -185.480
  H       57.165     -58.673    -187.222
  H       54.956     -60.292    -188.083
  H       57.099     -60.019    -189.342
  H       57.937     -60.985    -188.099
  P       55.403     -56.771    -187.530
  C       53.139     -55.546    -188.068
  O       54.146     -55.873    -187.119
  O       55.737     -56.838    -188.982
  O       56.626     -56.029    -186.786
  H       57.060     -55.471    -187.462
  H       52.390     -54.942    -187.600
  H       52.692     -56.445    -188.438
  H       53.577     -55.005    -188.880

 6  7  8  9  10  11  12  13  14  15  16  26  31  32  33  34  35 0
 6-311+G(2d,p)
 ****
 36  37 0
 6-311+G(2d,p)
 ****
 1  2  3  4  5  17  18  19  20  21  22  23  24  25 0
 3-21G
 ****
 27  28  29  30  38  39  40  41  42  43  44  45 0
 3-21G
 ****


