%nproc=1
%NoSave
%Mem=1900MB
#P OB98/GEN NMR

erre ene a

0 1
  C      215.786    -301.273     -90.731
  O      215.949    -300.061     -91.439
  P      215.228    -298.725     -90.922
  C      212.815    -297.757     -91.049
  O      213.705    -298.795     -91.407
  C      211.391    -298.289     -90.870
  O      211.420    -299.320     -89.851
  C      210.376    -297.258     -90.384
  O      209.060    -297.742     -90.659
  C      210.620    -297.261     -88.895
  O      209.515    -296.726     -88.165
  C      210.945    -298.753     -88.604
  N      211.964    -298.894     -87.553
  C      211.579    -298.564     -86.262
  O      210.427    -298.245     -85.965
  N      212.581    -298.531     -85.328
  C      213.903    -298.743     -85.580
  O      214.806    -298.411     -84.828
  C      214.209    -299.314     -86.906
  C      213.244    -299.338     -87.826
  O      215.875    -297.592     -91.848
  O      215.421    -298.434     -89.472
  H      209.773    -296.752     -87.210
  H      216.616    -297.157     -91.387
  H      212.327    -298.151     -84.424
  H      215.226    -299.639     -87.100
  H      213.453    -299.706     -88.831
  H      210.049    -299.300     -88.290
  H      211.492    -296.637     -88.668
  H      210.509    -296.258     -90.819
  H      211.052    -298.750     -91.803
  H      212.846    -296.978     -91.819
  H      213.144    -297.285     -90.116
  P      208.160    -296.922     -91.705
  C      207.239    -294.530     -91.827
  O      207.853    -295.503     -91.014
  O      206.977    -297.641     -92.253
  O      209.207    -296.535     -92.857
  H      208.728    -296.296     -93.673
  H      206.634    -293.870     -91.194
  H      206.590    -294.986     -92.589
  H      208.007    -293.931     -92.325
  H      216.336    -302.049     -91.221
  H      214.749    -301.534     -90.704
  H      216.150    -301.154     -89.732

 3  4  5  6  7  8  9  10  11  12  13  23  28  29  30  31  32 0
 6-311+G(2d,p)
 ****
 33  34 0
 6-311+G(2d,p)
 ****
 1  2  14  15  16  17  18  19  20  21  22  24  25  26  27 0
 3-21G
 ****
 35  36  37  38  39  40  41  42  43  44  45 0
 3-21G
 ****


