%nproc=1
%NoSave
%Mem=1900MB
#P OB98/GEN NMR

erre ene a

0 1
  C      248.566     491.897    1391.961
  O      249.208     491.777    1390.709
  P      249.278     493.031    1389.712
  C      251.584     492.188    1388.952
  O      250.318     492.690    1388.544
  C      252.326     491.542    1387.774
  O      252.326     492.429    1386.630
  C      253.790     491.245    1388.059
  O      253.962     490.136    1388.919
  C      254.307     491.041    1386.634
  O      254.011     489.719    1386.166
  C      253.502     492.097    1385.846
  N      254.290     493.281    1385.520
  C      255.027     493.199    1384.334
  O      255.058     492.165    1383.685
  N      255.722     494.325    1383.934
  C      255.770     495.367    1384.709
  N      256.431     496.462    1384.240
  C      255.134     495.421    1386.048
  C      254.392     494.350    1386.368
  O      249.488     494.355    1390.364
  O      247.875     492.989    1388.952
  H      247.472     493.886    1388.995
  H      254.524     489.094    1386.729
  H      255.258     496.281    1386.668
  H      253.865     494.317    1387.318
  H      253.115     491.656    1384.916
  H      255.397     491.173    1386.564
  H      254.264     492.129    1388.495
  H      251.792     490.627    1387.500
  H      256.836     496.393    1383.303
  H      251.436     491.441    1389.740
  H      256.252     497.401    1384.589
  H      252.181     493.010    1389.385
  P      254.751     490.398    1390.296
  C      253.769     488.221    1391.299
  O      254.923     488.980    1391.017
  O      253.671     491.161    1391.195
  O      256.000     491.206    1390.145
  H      254.114     491.834    1391.747
  H      254.072     487.179    1391.460
  H      253.054     488.263    1390.483
  H      253.296     488.600    1392.229
  H      248.621     490.963    1392.481
  H      247.540     492.162    1391.812
  H      249.050     492.656    1392.539

 3  4  5  6  7  8  9  10  11  12  13  24  27  28  29  30  32 0
 6-311+G(2d,p)
 ****
 34  35 0
 6-311+G(2d,p)
 ****
 1  2  14  15  16  17  18  19  20  21  22  23  25  26 0
 3-21G
 ****
 31  33  36  37  38  39  40  41  42  43  44  45  46 0
 3-21G
 ****


