%nproc=1
%NoSave
%Mem=1900MB
#P OB98/GEN NMR

erre ene a

0 1
  C      682.520    -389.484      -4.418
  O      681.096    -389.514      -4.573
  P      680.089    -388.666      -3.653
  C      678.078    -388.229      -5.227
  O      678.590    -388.980      -4.131
  C      676.976    -389.003      -5.956
  O      677.560    -389.966      -6.867
  C      676.074    -389.844      -5.062
  O      675.163    -389.050      -4.321
  C      675.413    -390.764      -6.090
  O      674.281    -390.139      -6.703
  C      676.543    -390.959      -7.126
  N      677.096    -392.302      -7.111
  C      676.406    -393.276      -7.831
  O      675.332    -393.005      -8.372
  N      676.939    -394.540      -7.912
  C      678.011    -394.830      -7.237
  N      678.504    -396.094      -7.367
  C      678.697    -393.871      -6.353
  C      678.194    -392.633      -6.341
  O      680.407    -387.206      -3.596
  O      680.180    -389.336      -2.199
  H      679.949    -388.670      -1.519
  H      673.889    -390.802      -7.312
  H      679.564    -394.160      -5.785
  H      678.646    -391.857      -5.730
  H      676.165    -390.733      -8.125
  H      675.062    -391.699      -5.634
  H      676.693    -390.439      -4.380
  H      676.380    -388.286      -6.539
  H      678.018    -396.725      -7.988
  H      678.903    -388.039      -5.927
  H      679.343    -396.413      -6.908
  H      677.706    -387.263      -4.859
  P      675.516    -388.794      -2.772
  C      673.868    -386.784      -2.659
  O      674.269    -388.031      -2.115
  O      676.665    -387.676      -2.832
  O      675.971    -390.008      -2.034
  H      677.332    -387.865      -2.145
  H      672.802    -386.646      -2.460
  H      674.043    -386.737      -3.733
  H      674.425    -385.985      -2.164
  H      682.971    -390.128      -5.143
  H      682.779    -389.817      -3.435
  H      682.873    -388.484      -4.560

 3  4  5  6  7  8  9  10  11  12  13  24  27  28  29  30  32 0
 6-311+G(2d,p)
 ****
 34  35 0
 6-311+G(2d,p)
 ****
 1  2  14  15  16  17  18  19  20  21  22  23  25  26 0
 3-21G
 ****
 31  33  36  37  38  39  40  41  42  43  44  45  46 0
 3-21G
 ****


