%nproc=1
%NoSave
%Mem=1900MB
#P OB98/GEN NMR

erre ene a

0 1
  C      102.170     -58.947     -29.349
  O      102.051     -58.257     -28.120
  H      101.980     -58.257     -30.174
  H      103.190     -59.329     -29.438
  H      101.470     -59.787     -29.394
  P      100.571     -57.869     -27.635
  C       99.630     -56.761     -25.480
  O      100.749     -56.932     -26.339
  C      100.046     -56.056     -24.188
  O      101.186     -56.769     -23.624
  C      100.459     -54.585     -24.374
  O       99.980     -53.836     -23.250
  C      101.981     -54.644     -24.318
  O      102.557     -53.411     -23.899
  C      102.201     -55.789     -23.338
  N      107.023     -55.361     -21.775
  C      105.868     -54.877     -21.274
  N      104.613     -55.083     -21.725
  C      104.612     -55.939     -22.766
  C      105.714     -56.524     -23.378
  C      106.972     -56.183     -22.850
  N      108.159     -56.618     -23.395
  N      105.308     -57.295     -24.449
  C      103.997     -57.162     -24.496
  N      103.534     -56.350     -23.498
  O      100.036     -59.254     -27.024
  O       99.666     -57.336     -28.693
  H      102.205     -53.184     -23.016
  H       99.629     -59.785     -27.733
  H      105.959     -54.228     -20.407
  H      103.345     -57.602     -25.241
  H      102.095     -55.483     -22.291
  H      102.373     -54.887     -25.311
  H      100.091     -54.138     -25.300
  H       99.227     -56.141     -23.466
  H       99.217     -57.744     -25.235
  H      109.017     -56.243     -23.014
  H      108.142     -57.139     -24.257
  H       98.862     -56.177     -25.996
  P       98.943     -52.650     -23.546
  C       96.735     -52.014     -22.307
  O       98.116     -52.350     -22.204
  O       97.859     -53.336     -24.501
  O       99.566     -51.447     -24.182
  H       97.506     -52.683     -25.132
  H       96.335     -51.846     -21.329
  H       96.206     -52.818     -22.775
  H       96.627     -51.126     -22.894

 6  7  8  9  10  11  12  13  14  15  25  28  32  33  34  35 0
 6-311+G(2d,p)
 ****
 36  39  40 0
 6-311+G(2d,p)
 ****
 1  2  3  4  5  16  17  18  19  20  21  22  23  24 0
 3-21G
 ****
 26  27  29  30  31  37  38  41  42  43  44  45  46  47 0
 3-21G
 ****
 48 0
 3-21G
 ****


