%nproc=1
%NoSave
%Mem=1900MB
#P OB98/GEN NMR

erre ene a

0 1
  C      982.557    -893.834      46.193
  O      981.717    -894.276      45.153
  H      982.665    -894.644      46.918
  H      982.125    -892.974      46.697
  H      983.545    -893.579      45.798
  P      981.331    -893.249      43.980
  C      982.517    -894.505      42.061
  O      982.493    -893.333      42.878
  C      983.740    -895.368      42.430
  O      983.578    -895.801      43.811
  C      983.849    -896.613      41.529
  O      985.141    -896.772      40.931
  C      983.383    -897.754      42.450
  O      983.907    -899.021      42.144
  C      983.753    -897.224      43.859
  N      982.961    -897.805      44.921
  C      983.257    -897.441      46.235
  O      984.151    -896.646      46.549
  N      982.487    -898.015      47.207
  C      981.481    -898.917      47.013
  O      980.829    -899.400      47.932
  C      981.207    -899.264      45.609
  C      981.967    -898.724      44.640
  O      980.992    -891.863      44.428
  O      980.096    -893.948      43.241
  H      983.361    -899.392      41.424
  H      979.263    -893.506      43.526
  H      982.698    -897.757      48.163
  H      980.416    -900.000      45.417
  H      981.794    -898.969      43.600
  H      984.815    -897.435      44.073
  H      982.295    -897.816      42.384
  H      983.169    -896.558      40.678
  H      984.648    -894.751      42.370
  H      982.580    -894.186      41.026
  H      981.602    -895.090      42.215
  P      985.701    -895.824      39.763
  C      987.752    -894.820      41.020
  O      986.485    -894.611      40.452
  O      984.722    -895.487      38.671
  O      986.881    -896.713      39.106
  H      986.890    -896.479      38.151
  H      988.115    -893.901      41.429
  H      988.428    -895.167      40.266
  H      987.678    -895.552      41.797

 6  7  8  9  10  11  12  13  14  15  16  26  31  32  33  34  35 0
 6-311+G(2d,p)
 ****
 36  37 0
 6-311+G(2d,p)
 ****
 1  2  3  4  5  17  18  19  20  21  22  23  24  25 0
 3-21G
 ****
 27  28  29  30  38  39  40  41  42  43  44  45 0
 3-21G
 ****


