%nproc=1
%NoSave
%Mem=1900MB
#P OB98/GEN NMR

erre ene a

0 1
  C      -43.294      61.280     138.027
  O      -42.371      60.191     138.161
  P      -41.731      59.578     136.826
  C      -39.837      61.344     136.567
  O      -40.179      59.981     136.770
  C      -38.316      61.511     136.502
  O      -37.719      61.486     137.815
  C      -37.612      60.413     135.719
  O      -37.661      60.658     134.320
  C      -36.187      60.553     136.229
  O      -35.533      61.648     135.557
  C      -36.404      60.894     137.708
  N      -33.420      58.221     140.899
  C      -33.179      59.313     140.140
  N      -34.018      59.956     139.302
  C      -35.227      59.371     139.301
  C      -35.621      58.255     140.020
  C      -34.654      57.667     140.852
  N      -34.908      56.557     141.625
  N      -36.936      57.939     139.752
  C      -37.335      58.860     138.898
  N      -36.335      59.742     138.588
  O      -42.384      60.471     135.668
  O      -42.022      58.128     136.626
  H      -36.153      62.402     135.571
  H      -42.527      59.927     134.872
  H      -32.177      59.724     140.216
  H      -38.330      58.929     138.481
  H      -35.679      61.629     138.077
  H      -35.584      59.661     136.043
  H      -38.012      59.425     135.981
  H      -38.102      62.487     136.044
  H      -40.249      61.957     137.373
  H      -34.173      56.209     142.218
  H      -35.834      56.154     141.610
  H      -40.308      61.695     135.643
  P      -37.668      59.379     133.352
  C      -40.260      59.244     133.242
  O      -39.049      59.454     132.544
  O      -37.877      58.160     134.369
  O      -36.433      59.220     132.532
  H      -37.444      57.356     134.021
  H      -41.084      59.624     132.634
  H      -40.260      59.769     134.200
  H      -40.408      58.174     133.409
  H      -43.634      61.580     138.996
  H      -44.130      60.968     137.436
  H      -42.807      62.104     137.549

 3  4  5  6  7  8  9  10  11  12  22  25  29  30  31  32 0
 6-311+G(2d,p)
 ****
 33  36  37 0
 6-311+G(2d,p)
 ****
 1  2  13  14  15  16  17  18  19  20  21  23  24  26 0
 3-21G
 ****
 27  28  34  35  38  39  40  41  42  43  44  45  46  47  48 0
 3-21G
 ****


