%nproc=1
%NoSave
%Mem=1900MB
#P OB98/GEN NMR

erre ene a

0 1
  C       77.046     -18.379     -80.659
  O       77.014     -17.719     -81.913
  P       78.348     -17.741     -82.805
  C       80.750     -16.742     -82.407
  O       79.366     -16.729     -82.091
  C       81.352     -15.350     -82.189
  O       80.798     -14.421     -83.145
  C       81.069     -14.743     -80.821
  O       81.893     -15.306     -79.813
  C       81.321     -13.265     -81.097
  O       82.730     -12.986     -81.069
  C       80.777     -13.113     -82.533
  N       79.438     -12.527     -82.583
  C       79.347     -11.176     -82.263
  O       80.320     -10.490     -81.952
  N       78.086     -10.641     -82.292
  C       76.929     -11.321     -82.541
  O       75.821     -10.802     -82.512
  C       77.087     -12.754     -82.841
  C       78.313     -13.282     -82.848
  O       77.844     -16.961     -84.107
  O       78.866     -19.116     -83.050
  H       77.121     -16.343     -83.901
  H       83.157     -13.657     -81.637
  H       77.996      -9.657     -82.086
  H       76.190     -13.328     -83.034
  H       78.446     -14.336     -83.057
  H       81.451     -12.486     -83.130
  H       80.842     -12.610     -80.360
  H       80.014     -14.891     -80.558
  H       82.433     -15.415     -82.364
  H       80.874     -17.037     -83.451
  H       81.252     -17.480     -81.771
  P       81.206     -15.548     -78.376
  C       79.977     -13.985     -76.681
  O       80.517     -14.161     -77.971
  O       82.495     -15.643     -77.430
  O       80.315     -16.746     -78.332
  H       83.171     -14.979     -77.644
  H       79.888     -12.913     -76.479
  H       80.615     -14.436     -75.915
  H       78.983     -14.435     -76.637
  H       76.094     -18.282     -80.180
  H       77.802     -17.938     -80.043
  H       77.266     -19.416     -80.807

 3  4  5  6  7  8  9  10  11  12  13  24  28  29  30  31  32 0
 6-311+G(2d,p)
 ****
 33  34 0
 6-311+G(2d,p)
 ****
 1  2  14  15  16  17  18  19  20  21  22  23  25  26  27 0
 3-21G
 ****
 35  36  37  38  39  40  41  42  43  44  45 0
 3-21G
 ****


