%nproc=1
%NoSave
%Mem=1900MB
#P OB98/GEN NMR

erre ene a

0 1
  C     -176.214      96.827      54.029
  O     -177.066      96.396      55.070
  H     -175.422      96.085      53.898
  H     -175.755      97.785      54.284
  H     -176.768      96.915      53.090
  P     -178.319      97.318      55.465
  C     -178.164      98.827      57.566
  O     -177.662      98.550      56.267
  C     -177.372      98.050      58.615
  O     -175.952      98.282      58.479
  C     -177.682      98.426      60.061
  O     -178.932      97.944      60.522
  C     -176.513      97.759      60.762
  O     -176.735      96.339      60.828
  C     -175.356      98.102      59.796
  N     -174.623      99.303      60.196
  C     -173.779      99.183      61.307
  O     -173.681      98.114      61.906
  N     -173.087     100.291      61.736
  C     -173.244     101.425      61.125
  N     -172.538     102.492      61.599
  C     -174.136     101.602      59.965
  C     -174.785     100.514      59.556
  O     -179.448      96.626      56.159
  O     -178.748      98.022      54.093
  H     -176.038      95.971      61.402
  H     -179.529      98.598      54.280
  H     -174.254     102.575      59.509
  H     -175.466     100.565      58.711
  H     -174.650      97.265      59.719
  H     -176.364      98.112      61.783
  H     -177.603      99.510      60.208
  H     -177.543      96.981      58.432
  H     -171.936     102.339      62.396
  H     -179.223      98.552      57.591
  H     -172.656     103.428      61.233
  H     -178.067      99.895      57.784
  P     -179.705      98.845      61.608
  C     -179.797      98.037      64.091
  O     -179.012      98.534      63.019
  O     -181.135      98.140      61.710
  O     -179.802     100.300      61.277
  H     -181.795      98.615      61.168
  H     -179.175      97.888      64.949
  H     -180.241      97.106      63.806
  H     -180.566      98.742      64.326

 6  7  8  9  10  11  12  13  14  15  16  26  30  31  32  33  35 0
 6-311+G(2d,p)
 ****
 37  38 0
 6-311+G(2d,p)
 ****
 1  2  3  4  5  17  18  19  20  21  22  23  24  25 0
 3-21G
 ****
 27  28  29  34  36  39  40  41  42  43  44  45  46 0
 3-21G
 ****


