%nproc=1
%NoSave
%Mem=1900MB
#P OB98/GEN NMR

erre ene a

0 1
  C     -216.227     -23.493      44.904
  O     -214.991     -22.977      45.360
  H     -216.208     -24.583      44.999
  H     -216.384     -23.237      43.852
  H     -217.050     -23.103      45.508
  P     -214.768     -21.390      45.317
  C     -214.836     -19.599      43.454
  O     -214.769     -20.986      43.763
  C     -214.908     -19.402      41.942
  O     -213.695     -19.873      41.319
  C     -216.060     -20.152      41.274
  O     -217.272     -19.428      41.416
  C     -215.559     -20.205      39.839
  O     -215.744     -18.922      39.211
  C     -214.057     -20.485      40.047
  N     -212.515     -24.495      37.351
  C     -212.833     -23.213      36.935
  N     -212.771     -22.984      35.605
  N     -213.197     -22.254      37.747
  C     -213.283     -22.652      39.037
  C     -213.012     -23.895      39.570
  C     -212.553     -24.933      38.669
  O     -212.247     -26.077      38.997
  N     -213.272     -23.936      40.915
  C     -213.668     -22.712      41.205
  N     -213.704     -21.895      40.098
  O     -213.589     -20.862      46.078
  O     -216.150     -20.788      45.855
  H     -215.271     -18.959      38.357
  H     -216.117     -20.636      46.817
  H     -212.258     -25.194      36.674
  H     -213.935     -22.362      42.195
  H     -213.437     -20.022      39.269
  H     -216.077     -20.944      39.230
  H     -212.776     -23.741      34.931
  H     -216.150     -21.180      41.649
  H     -213.048     -22.066      35.276
  H     -214.971     -18.324      41.746
  H     -213.935     -19.125      43.860
  H     -215.715     -19.145      43.925
  P     -218.644     -20.173      41.801
  C     -219.806     -22.245      40.779
  O     -218.969     -21.117      40.548
  O     -219.757     -19.264      42.204
  O     -218.226     -21.225      42.929
  H     -218.257     -20.855      43.849
  H     -219.939     -22.783      39.864
  H     -220.757     -21.915      41.141
  H     -219.350     -22.884      41.506

 6  7  8  9  10  11  12  13  14  15  26  29  33  34 0
 6-311+G(2d,p)
 ****
 36  38  39  40  41 0
 6-311+G(2d,p)
 ****
 1  2  3  4  5  16  17  18  19  20  21  22  23  24  25 0
 3-21G
 ****
 27  28  30  31  32  35  37  42  43  44  45  46  47 0
 3-21G
 ****
 48  49 0
 3-21G
 ****


