%nproc=1
%NoSave
%Mem=1900MB
#P OB98/GEN NMR

erre ene a

0 1
  C      108.330      82.341      63.664
  O      107.967      83.527      62.984
  H      109.408      82.355      63.844
  H      108.087      81.470      63.049
  H      107.809      82.277      64.623
  P      106.403      83.790      62.770
  C      106.126      82.220      60.685
  O      105.797      82.493      62.041
  C      104.889      81.724      59.938
  O      104.447      80.450      60.449
  C      103.673      82.620      60.098
  O      103.795      83.838      59.399
  C      102.584      81.704      59.561
  O      102.580      81.691      58.126
  C      103.037      80.332      60.119
  N      102.247      79.910      61.267
  C      101.297      78.912      61.019
  O      101.174      78.438      59.890
  N      100.493      78.499      62.052
  C      100.640      79.015      63.231
  N       99.806      78.570      64.209
  C      101.646      80.049      63.543
  C      102.404      80.449      62.523
  O      106.388      84.888      61.608
  O      105.648      84.179      63.999
  H      103.476      81.410      57.853
  H      106.895      84.629      60.821
  H      101.739      80.444      64.543
  H      103.166      81.205      62.664
  H      102.956      79.557      59.348
  H      101.588      82.020      59.878
  H      103.470      82.795      61.163
  H      105.158      81.596      58.882
  H       99.114      77.875      63.954
  H      106.936      81.488      60.619
  H       99.805      78.921      65.154
  H      106.486      83.153      60.239
  P      102.994      85.140      59.883
  C      101.259      84.912      57.996
  O      101.475      84.938      59.402
  O      103.602      86.443      59.487
  O      102.877      84.932      61.468
  H      102.407      84.124      61.738
  H      100.217      84.773      57.798
  H      101.815      84.106      57.565
  H      101.583      85.838      57.568

 6  7  8  9  10  11  12  13  14  15  16  26  30  31  32  33  35 0
 6-311+G(2d,p)
 ****
 37  38 0
 6-311+G(2d,p)
 ****
 1  2  3  4  5  17  18  19  20  21  22  23  24  25 0
 3-21G
 ****
 27  28  29  34  36  39  40  41  42  43  44  45  46 0
 3-21G
 ****


