%nproc=1
%NoSave
%Mem=1900MB
#P OB98/GEN NMR

erre ene a

0 1
  C      -49.016     240.878     -88.105
  O      -47.670     241.172     -88.421
  H      -49.035     240.093     -87.346
  H      -49.532     240.517     -88.998
  H      -49.526     241.762     -87.709
  P      -47.400     242.514     -89.261
  C      -47.583     243.138     -91.774
  O      -47.973     242.248     -90.738
  C      -48.616     243.126     -92.896
  O      -49.940     243.348     -92.366
  C      -48.397     244.196     -93.963
  O      -47.445     243.779     -94.933
  C      -49.789     244.280     -94.567
  O      -50.006     243.155     -95.447
  C      -50.683     244.152     -93.325
  N      -53.251     248.492     -93.873
  C      -53.065     247.454     -94.766
  N      -53.640     247.596     -95.980
  N      -52.377     246.374     -94.497
  C      -51.840     246.380     -93.253
  C      -51.946     247.352     -92.283
  C      -52.724     248.530     -92.588
  O      -52.927     249.474     -91.828
  N      -51.265     247.006     -91.146
  C      -50.726     245.838     -91.436
  N      -51.043     245.415     -92.704
  O      -45.809     242.491     -89.458
  O      -47.848     243.777     -88.605
  H      -50.880     243.279     -95.859
  H      -45.405     243.119     -88.830
  H      -53.781     249.303     -94.135
  H      -50.109     245.256     -90.765
  H      -51.618     243.625     -93.540
  H      -49.936     245.182     -95.164
  H      -54.164     248.409     -96.261
  H      -48.129     245.162     -93.520
  H      -53.520     246.844     -96.650
  H      -48.610     242.125     -93.347
  H      -46.611     242.822     -92.169
  H      -47.492     244.147     -91.360
  P      -46.935     244.855     -96.007
  C      -47.911     245.963     -98.140
  O      -48.142     245.092     -97.042
  O      -45.868     244.021     -96.859
  O      -46.328     246.089     -95.433
  H      -44.967     244.362     -96.690
  H      -48.795     246.024     -98.739
  H      -47.104     245.584     -98.732
  H      -47.659     246.937     -97.776

 6  7  8  9  10  11  12  13  14  15  26  29  33  34 0
 6-311+G(2d,p)
 ****
 36  38  39  40  41 0
 6-311+G(2d,p)
 ****
 1  2  3  4  5  16  17  18  19  20  21  22  23  24  25 0
 3-21G
 ****
 27  28  30  31  32  35  37  42  43  44  45  46  47 0
 3-21G
 ****
 48  49 0
 3-21G
 ****


