%nproc=1
%NoSave
%Mem=1900MB
#P OB98/GEN NMR

erre ene a

0 1
  C      190.662     178.598    -407.250
  O      190.666     179.814    -407.980
  P      191.824     180.027    -409.069
  C      192.618     182.186    -407.889
  O      192.144     181.600    -409.094
  C      192.874     183.679    -408.072
  O      194.009     183.852    -408.965
  C      191.692     184.452    -408.672
  O      191.530     185.692    -407.969
  C      192.162     184.782    -410.081
  O      191.517     185.940    -410.602
  C      193.664     184.941    -409.843
  N      194.708     187.353    -414.153
  C      194.015     187.793    -413.042
  N      193.475     189.030    -413.122
  N      193.857     187.085    -411.958
  C      194.478     185.877    -412.010
  C      195.200     185.334    -413.047
  C      195.312     186.109    -414.267
  O      195.837     185.741    -415.312
  N      195.689     184.098    -412.721
  C      195.262     183.888    -411.489
  N      194.478     184.918    -411.035
  O      191.060     179.774    -410.452
  O      193.003     179.127    -408.930
  H      191.824     186.048    -411.523
  H      191.513     179.070    -410.957
  H      194.785     187.935    -414.969
  H      195.461     182.995    -410.908
  H      193.867     185.882    -409.314
  H      191.944     183.936    -410.740
  H      193.589     189.642    -413.912
  H      190.745     183.903    -408.674
  H      192.982     189.378    -412.308
  H      193.166     184.104    -407.104
  H      193.551     181.694    -407.593
  H      191.875     182.029    -407.102
  P      190.030     186.062    -407.535
  C      189.817     188.501    -408.428
  O      190.019     187.649    -407.315
  O      189.916     185.470    -406.053
  O      188.982     185.519    -408.451
  H      188.983     185.286    -405.830
  H      189.520     187.948    -409.323
  H      190.743     189.040    -408.633
  H      189.033     189.221    -408.182
  H      189.840     178.596    -406.566
  H      191.579     178.505    -406.706
  H      190.565     177.776    -407.928

 3  4  5  6  7  8  9  10  11  12  23  26  30  31  33  0
 6-311+G(2d,p)
 ****
 35  36  37  38 0
 6-311+G(2d,p)
 ****
 1  2  13  14  15  16  17  18  19  20  21  22  24  25  27  28  29 0
 3-21G
 ****
 32  34  39  40  41  42  43  44  45  46  47  48  49 0
 3-21G
 ****


