%nproc=1
%NoSave
%Mem=1900MB
#P OB98/GEN NMR

erre ene a

0 1
  C       90.939     199.054     -28.500
  O       90.208     198.012     -27.879
  P       90.406     197.676     -26.318
  C       92.440     196.118     -26.655
  O       91.970     197.367     -26.160
  C       93.597     195.620     -25.790
  O       94.711     196.525     -25.904
  C       93.281     195.533     -24.301
  O       92.485     194.395     -24.013
  C       94.687     195.521     -23.712
  O       95.260     194.208     -23.810
  C       95.433     196.492     -24.650
  N       95.576     197.831     -24.088
  C       96.749     198.086     -23.370
  O       97.610     197.217     -23.234
  N       96.939     199.338     -22.842
  C       96.029     200.251     -22.997
  N       96.299     201.494     -22.511
  C       94.753     200.009     -23.697
  C       94.598     198.793     -24.219
  O       89.502     196.619     -25.784
  O       90.257     199.084     -25.584
  H       96.173     194.277     -23.473
  H       89.324     199.306     -25.338
  H       94.022     200.798     -23.787
  H       93.700     198.541     -24.765
  H       96.428     196.100     -24.886
  H       94.720     195.825     -22.660
  H       92.750     196.435     -23.972
  H       93.910     194.639     -26.173
  H       97.250     201.660     -22.194
  H       92.796     196.262     -27.680
  H       95.793     202.309     -22.833
  H       91.615     195.398     -26.663
  P       91.478     194.493     -22.769
  C       93.352     193.837     -21.098
  O       92.393     194.807     -21.487
  O       91.004     192.979     -22.562
  O       90.331     195.424     -22.979
  H       90.115     192.847     -22.942
  H       94.035     194.297     -20.380
  H       93.928     193.492     -21.962
  H       92.851     192.992     -20.620
  H       90.665     199.116     -29.532
  H       91.987     198.851     -28.421
  H       90.718     199.982     -28.016

 3  4  5  6  7  8  9  10  11  12  13  23  27  28  29  30  32 0
 6-311+G(2d,p)
 ****
 34  35 0
 6-311+G(2d,p)
 ****
 1  2  14  15  16  17  18  19  20  21  22  24  25  26 0
 3-21G
 ****
 31  33  36  37  38  39  40  41  42  43  44  45  46 0
 3-21G
 ****


