%nproc=1
%NoSave
%Mem=1900MB
#P OB98/GEN NMR

erre ene a

0 1
  C      201.765    -300.736     242.499
  O      202.269    -301.975     242.980
  P      201.213    -303.075     243.478
  C      200.245    -301.665     245.449
  O      200.973    -302.814     245.043
  C      199.957    -301.716     246.951
  O      199.388    -300.436     247.355
  C      198.967    -302.807     247.383
  O      199.353    -303.226     248.698
  C      197.641    -302.063     247.451
  O      196.683    -302.723     248.277
  C      198.112    -300.707     247.974
  N      194.899    -297.276     249.865
  C      195.624    -298.265     250.516
  N      195.515    -298.296     251.866
  N      196.382    -299.134     249.898
  C      196.401    -298.966     248.549
  C      195.700    -298.053     247.792
  C      194.896    -297.070     248.487
  O      194.310    -296.129     247.964
  N      195.913    -298.244     246.453
  C      196.797    -299.215     246.404
  N      197.161    -299.653     247.652
  O      202.062    -304.428     243.442
  O      199.946    -303.170     242.678
  H      196.608    -303.652     247.964
  H      201.937    -304.902     242.595
  H      194.352    -296.621     250.398
  H      197.217    -299.646     245.502
  H      198.251    -300.706     249.068
  H      197.216    -301.967     246.447
  H      194.979    -297.638     252.404
  H      198.936    -303.656     246.702
  H      196.063    -298.995     252.367
  H      200.906    -301.828     247.484
  H      199.290    -301.645     244.911
  H      200.811    -300.759     245.190
  P      199.644    -304.791     248.930
  C      197.550    -305.392     250.331
  O      198.956    -305.210     250.307
  O      201.213    -304.803     249.285
  O      199.353    -305.664     247.748
  H      201.617    -305.632     248.963
  H      197.291    -306.039     251.174
  H      197.183    -305.851     249.406
  H      197.060    -304.419     250.471
  H      202.581    -300.109     242.205
  H      201.206    -300.254     243.273
  H      201.129    -300.912     241.657

 3  4  5  6  7  8  9  10  11  12  23  26  30  31 0
 6-311+G(2d,p)
 ****
 33  35  36  37  38 0
 6-311+G(2d,p)
 ****
 1  2  13  14  15  16  17  18  19  20  21  22  24  25 0
 3-21G
 ****
 27  28  29  32  34  39  40  41  42  43  44  45  46  47  48  49 0
 3-21G
 ****


