%nproc=1
%NoSave
%Mem=1900MB
#P OB98/GEN NMR

erre ene a

0 1
  C     -790.926     650.966      69.279
  O     -792.288     650.599      69.279
  P     -792.950     649.711      70.410
  C     -794.040     651.657      71.791
  O     -793.093     650.578      71.746
  C     -795.100     651.422      72.886
  O     -794.417     651.072      74.115
  C     -795.919     652.706      73.151
  O     -797.309     652.453      73.326
  C     -795.169     653.347      74.313
  O     -795.952     654.286      75.042
  C     -794.667     652.124      75.083
  N     -792.265     655.139      78.393
  C     -793.586     655.153      78.025
  N     -794.319     656.217      78.413
  N     -794.134     654.229      77.274
  C     -793.256     653.297      76.823
  C     -791.921     653.178      77.149
  C     -791.327     654.180      77.986
  O     -790.147     654.260      78.278
  N     -791.338     652.133      76.466
  C     -792.307     651.643      75.711
  N     -793.477     652.334      75.876
  O     -792.454     648.304      70.544
  O     -794.492     649.640      69.900
  H     -795.931     655.115      74.529
  H     -794.827     648.760      70.141
  H     -791.880     655.932      78.915
  H     -792.208     650.815      75.038
  H     -795.442     651.750      75.776
  H     -794.321     653.893      73.874
  H     -793.870     656.999      78.859
  H     -795.888     653.359      72.285
  H     -795.195     656.391      77.960
  H     -795.732     650.560      72.597
  H     -794.515     651.673      70.808
  H     -793.536     652.600      71.941
  P     -798.546     653.433      73.068
  C     -798.843     652.943      70.560
  O     -798.488     653.908      71.531
  O     -798.187     654.769      73.863
  O     -799.873     652.924      73.509
  H     -798.989     655.146      74.271
  H     -798.500     653.285      69.568
  H     -799.912     652.799      70.542
  H     -798.357     651.978      70.783
  H     -790.718     651.564      68.416
  H     -790.319     650.085      69.258
  H     -790.708     651.528      70.163

 3  4  5  6  7  8  9  10  11  12  23  26  30  31 0
 6-311+G(2d,p)
 ****
 33  35  36  37  38 0
 6-311+G(2d,p)
 ****
 1  2  13  14  15  16  17  18  19  20  21  22  24  25 0
 3-21G
 ****
 27  28  29  32  34  39  40  41  42  43  44  45  46  47  48  49 0
 3-21G
 ****


