%nproc=1
%NoSave
%Mem=1900MB
#P OB98/GEN NMR

erre ene a

0 1
  C      743.281    -660.530    1009.557
  O      742.072    -660.423    1010.283
  H      743.978    -661.172    1010.105
  H      743.739    -659.542    1009.446
  H      743.111    -660.968    1008.568
  P      740.838    -659.718    1009.539
  C      740.731    -657.971    1011.460
  O      740.806    -658.196    1010.060
  C      740.682    -656.457    1011.746
  O      741.928    -655.863    1011.288
  C      739.537    -655.726    1011.016
  O      739.060    -654.698    1011.873
  C      740.234    -655.104    1009.815
  O      739.551    -653.978    1009.280
  C      741.601    -654.752    1010.419
  N      742.631    -654.544    1009.413
  C      742.828    -653.257    1008.955
  O      742.235    -652.251    1009.396
  N      743.726    -653.107    1007.937
  C      744.426    -654.117    1007.326
  O      745.204    -653.936    1006.406
  C      744.179    -655.476    1007.845
  C      743.294    -655.624    1008.856
  O      739.570    -660.390    1010.258
  O      740.796    -659.869    1008.054
  H      739.300    -661.198    1009.786
  H      739.331    -653.391    1010.034
  H      743.875    -652.174    1007.597
  H      744.690    -656.295    1007.390
  H      743.080    -656.615    1009.248
  H      741.517    -653.847    1011.054
  H      740.346    -655.853    1009.021
  H      738.715    -656.384    1010.719
  H      740.620    -656.314    1012.817
  H      741.636    -658.397    1011.942
  H      739.842    -658.469    1011.870
  P      737.670    -654.968    1012.638
  C      735.935    -653.624    1011.191
  O      736.532    -654.887    1011.520
  O      737.508    -653.592    1013.482
  O      737.698    -656.210    1013.471
  H      737.841    -652.824    1012.987
  H      735.199    -653.765    1010.427
  H      736.691    -652.953    1010.838
  H      735.470    -653.212    1012.062

 6  7  8  9  10  11  12  13  14  15  16  27  31  32  33  34  35 0
 6-311+G(2d,p)
 ****
 36  37 0
 6-311+G(2d,p)
 ****
 1  2  3  4  5  17  18  19  20  21  22  23  24  25 0
 3-21G
 ****
 26  28  29  30  38  39  40  41  42  43  44  45 0
 3-21G
 ****


