%nproc=1
%NoSave
%Mem=1900MB
#P OB98/GEN NMR

erre ene a

0 1
  C       29.350     239.305     328.998
  O       29.646     240.315     328.053
  H       30.215     239.170     329.651
  H       29.146     238.363     328.484
  H       28.488     239.590     329.609
  P       28.440     240.847     327.142
  C       25.926     240.857     327.804
  O       27.248     241.240     328.146
  C       24.954     241.302     328.897
  O       25.392     240.734     330.165
  C       24.872     242.822     329.077
  O       23.523     243.168     329.405
  C       25.756     243.073     330.285
  O       25.462     244.280     330.975
  C       25.474     241.817     331.114
  N       26.508     241.562     332.115
  C       26.443     242.285     333.302
  O       25.535     243.056     333.603
  N       27.487     242.091     334.169
  C       28.570     241.288     333.961
  O       29.486     241.173     334.768
  C       28.588     240.557     332.685
  C       27.574     240.727     331.836
  O       27.905     239.512     326.437
  O       28.799     241.909     326.158
  H       28.376     239.358     325.598
  H       25.573     245.016     330.338
  H       27.458     242.608     335.035
  H       29.438     239.918     332.481
  H       27.565     240.218     330.876
  H       24.496     241.896     331.606
  H       26.808     243.109     329.976
  H       25.197     243.395     328.202
  H       23.964     240.881     328.682
  H       25.877     239.768     327.707
  H       25.656     241.309     326.844
  P       22.594     243.726     328.220
  C       22.138     242.751     325.830
  O       22.417     242.501     327.201
  O       23.603     244.721     327.481
  O       21.333     244.351     328.713
  H       24.521     244.401     327.486
  H       22.054     241.821     325.308
  H       22.932     243.329     325.404
  H       21.219     243.292     325.746

 6  7  8  9  10  11  12  13  14  15  16  27  31  32  33  34  35 0
 6-311+G(2d,p)
 ****
 36  37 0
 6-311+G(2d,p)
 ****
 1  2  3  4  5  17  18  19  20  21  22  23  24  25 0
 3-21G
 ****
 26  28  29  30  38  39  40  41  42  43  44  45 0
 3-21G
 ****


