%nproc=1
%NoSave
%Mem=1900MB
#P OB98/GEN NMR

erre ene a

0 1
  C     -313.603      43.028     215.316
  O     -312.779      42.020     214.738
  P     -313.372      40.539     214.568
  C     -311.887      39.427     216.360
  O     -313.214      39.770     215.970
  C     -311.846      39.021     217.837
  O     -312.018      40.151     218.707
  C     -312.948      38.047     218.219
  O     -312.675      36.744     217.723
  C     -312.942      38.179     219.735
  O     -311.915      37.364     220.319
  C     -312.611      39.677     219.933
  N     -313.766      40.479     220.303
  C     -314.372      40.154     221.522
  O     -313.945      39.215     222.199
  N     -315.455      40.894     221.937
  C     -315.898      41.867     221.199
  N     -316.964      42.570     221.661
  C     -315.296      42.229     219.896
  C     -314.255      41.498     219.510
  O     -312.900      39.787     213.372
  O     -314.958      40.807     214.493
  H     -312.008      37.466     221.288
  H     -315.367      40.109     213.942
  H     -315.699      43.050     219.317
  H     -313.753      41.694     218.568
  H     -311.851      39.799     220.713
  H     -313.898      37.857     220.177
  H     -313.906      38.398     217.822
  H     -310.862      38.563     218.033
  H     -317.370      42.291     222.544
  H     -311.226      40.284     216.189
  H     -317.353      43.368     221.177
  H     -311.530      38.616     215.714
  P     -313.068      36.436     216.201
  C     -315.441      35.635     216.900
  O     -314.662      36.499     216.083
  O     -312.751      34.863     216.067
  O     -312.317      37.224     215.180
  H     -312.442      34.671     215.163
  H     -316.462      36.007     216.936
  H     -315.048      35.579     217.916
  H     -315.449      34.631     216.455
  H     -313.062      43.950     215.357
  H     -313.884      42.735     216.306
  H     -314.482      43.156     214.719

 3  4  5  6  7  8  9  10  11  12  13  23  27  28  29  30  32 0
 6-311+G(2d,p)
 ****
 34  35 0
 6-311+G(2d,p)
 ****
 1  2  14  15  16  17  18  19  20  21  22  24  25  26 0
 3-21G
 ****
 31  33  36  37  38  39  40  41  42  43  44  45  46 0
 3-21G
 ****


