%nproc=1
%NoSave
%Mem=1900MB
#P OB98/GEN NMR

erre ene a

0 1
  C      100.325    -165.192     -20.598
  O      100.609    -163.810     -20.531
  H      101.072    -165.670     -21.237
  H       99.335    -165.363     -21.029
  H      100.382    -165.640     -19.602
  P       99.583    -162.858     -19.741
  C      101.361    -163.178     -17.881
  O       99.982    -163.046     -18.193
  C      101.752    -162.183     -16.790
  O      101.093    -162.494     -15.545
  C      103.240    -162.163     -16.447
  O      104.038    -161.522     -17.427
  C      103.195    -161.390     -15.137
  O      103.001    -159.993     -15.409
  C      101.941    -162.004     -14.467
  N      102.262    -163.086     -13.538
  C      102.462    -162.725     -12.198
  O      102.368    -161.548     -11.848
  N      102.803    -163.702     -11.293
  C      102.949    -164.928     -11.692
  N      103.333    -165.848     -10.763
  C      102.731    -165.354     -13.087
  C      102.397    -164.396     -13.948
  O       98.133    -163.045     -20.055
  O      100.111    -161.375     -20.031
  H      103.024    -159.529     -14.552
  H       99.501    -160.747     -19.572
  H      102.873    -166.388     -13.367
  H      102.237    -164.629     -14.997
  H      101.370    -161.236     -13.932
  H      104.115    -161.484     -14.550
  H      103.606    -163.175     -16.243
  H      101.398    -161.192     -17.103
  H      103.517    -165.509      -9.826
  H      101.936    -163.002     -18.798
  H      103.733    -166.738     -11.037
  H      101.570    -164.189     -17.519
  P      105.600    -161.888     -17.479
  C      105.125    -163.099     -19.736
  O      105.748    -163.147     -18.463
  O      105.871    -162.504     -16.029
  O      106.522    -160.751     -17.800
  H      106.197    -161.825     -15.410
  H      105.319    -164.010     -20.263
  H      105.516    -162.274     -20.294
  H      104.069    -162.977     -19.612

 6  7  8  9  10  11  12  13  14  15  16  26  30  31  32  33  35 0
 6-311+G(2d,p)
 ****
 37  38 0
 6-311+G(2d,p)
 ****
 1  2  3  4  5  17  18  19  20  21  22  23  24  25 0
 3-21G
 ****
 27  28  29  34  36  39  40  41  42  43  44  45  46 0
 3-21G
 ****


