%nproc=1
%NoSave
%Mem=1900MB
#P OB98/GEN NMR

erre ene a

0 1
  C       27.073      15.247     -40.424
  O       26.961      14.999     -41.823
  P       27.836      13.805     -42.436
  C       26.005      11.954     -42.750
  O       26.868      12.905     -43.343
  C       25.091      11.304     -43.806
  O       24.627      12.339     -44.710
  C       25.761      10.261     -44.694
  O       24.746       9.461     -45.306
  C       26.420      11.128     -45.744
  O       26.760      10.379     -46.908
  C       25.378      12.250     -45.949
  N       25.977      13.563     -46.275
  C       26.170      13.889     -47.615
  O       25.872      13.149     -48.551
  N       26.761      15.098     -47.862
  C       27.134      16.013     -46.925
  O       27.739      17.042     -47.195
  C       26.781      15.681     -45.539
  C       26.239      14.489     -45.280
  O       28.155      12.885     -41.169
  O       29.077      14.262     -43.125
  H       25.917      10.016     -47.263
  H       29.083      13.000     -40.893
  H       26.968      15.318     -48.825
  H       27.001      16.413     -44.771
  H       25.991      14.220     -44.256
  H       24.683      12.001     -46.761
  H       27.348      11.548     -45.346
  H       26.482       9.621     -44.180
  H       24.211      10.881     -43.309
  H       25.405      12.430     -41.972
  H       26.599      11.176     -42.257
  P       24.453       8.014     -44.683
  C       22.843       8.678     -42.793
  O       22.973       8.079     -44.068
  O       25.504       7.464     -43.780
  O       24.248       7.099     -45.985
  H       24.360       6.161     -45.747
  H       21.849       9.126     -42.715
  H       23.597       9.454     -42.635
  H       22.948       7.909     -42.023
  H       26.438      16.065     -40.155
  H       28.088      15.489     -40.185
  H       26.777      14.373     -39.882

 3  4  5  6  7  8  9  10  11  12  13  23  28  29  30  31  32 0
 6-311+G(2d,p)
 ****
 33  34 0
 6-311+G(2d,p)
 ****
 1  2  14  15  16  17  18  19  20  21  22  24  25  26  27 0
 3-21G
 ****
 35  36  37  38  39  40  41  42  43  44  45 0
 3-21G
 ****


