%nproc=1
%NoSave
%Mem=1900MB
#P OB98/GEN NMR

erre ene a

0 1
  C      311.884     424.924    -272.565
  O      311.561     425.928    -271.620
  P      310.933     427.305    -272.184
  C      312.762     428.831    -271.166
  O      311.394     428.459    -271.168
  C      313.128     429.609    -269.886
  O      312.309     430.809    -269.822
  C      312.903     428.814    -268.599
  O      313.948     429.161    -267.681
  C      311.586     429.362    -268.068
  O      311.476     429.181    -266.653
  C      311.657     430.818    -268.538
  N      310.350     431.448    -268.615
  C      309.869     432.073    -267.447
  O      310.517     432.009    -266.401
  N      308.648     432.706    -267.490
  C      307.916     432.614    -268.559
  N      306.716     433.270    -268.548
  C      308.330     431.865    -269.768
  C      309.548     431.328    -269.726
  O      309.374     427.127    -271.868
  O      311.199     427.554    -273.629
  H      312.191     429.690    -266.212
  H      308.825     427.581    -272.542
  H      307.669     431.800    -270.619
  H      309.946     430.769    -270.579
  H      312.290     431.419    -267.851
  H      310.749     428.851    -268.549
  H      312.900     427.728    -268.746
  H      314.167     429.927    -269.967
  H      306.452     433.758    -267.708
  H      312.964     429.487    -272.015
  H      306.084     433.257    -269.337
  H      313.394     427.940    -271.261
  P      315.088     428.069    -267.393
  C      314.613     427.710    -264.895
  O      315.480     428.273    -265.854
  O      316.352     428.717    -268.138
  O      314.858     426.670    -267.850
  H      317.112     428.103    -268.091
  H      315.068     427.796    -263.899
  H      314.440     426.644    -265.100
  H      313.656     428.242    -264.890
  H      312.288     424.073    -272.057
  H      312.608     425.304    -273.256
  H      311.001     424.636    -273.096

 3  4  5  6  7  8  9  10  11  12  13  21  23  27  28  29  30  32 0
 6-311+G(2d,p)
 ****
 34  35 0
 6-311+G(2d,p)
 ****
 1  2  14  15  16  17  18  19  20  22  24  25  26 0
 3-21G
 ****
 31  33  36  37  38  39  40  41  42  43  44  45  46 0
 3-21G
 ****


