%nproc=1
%NoSave
%Mem=1900MB
#P OB98/GEN NMR

erre ene a

0 1
  C      -83.188       6.944      64.969
  O      -82.382       7.499      63.926
  P      -81.437       8.729      64.342
  C      -82.699      10.818      63.474
  O      -81.641       9.897      63.259
  C      -83.134      11.489      62.167
  O      -82.045      12.272      61.595
  C      -83.586      10.501      61.086
  O      -84.638      11.139      60.348
  C      -82.360      10.385      60.201
  O      -82.689       9.863      58.915
  C      -81.884      11.836      60.226
  N      -78.950      13.065      56.305
  C      -80.318      12.896      56.374
  N      -81.015      13.140      55.242
  N      -80.950      12.523      57.456
  C      -80.129      12.354      58.522
  C      -78.764      12.504      58.584
  C      -78.073      12.886      57.370
  O      -76.865      13.053      57.258
  N      -78.289      12.273      59.856
  C      -79.369      11.918      60.532
  N      -80.511      12.004      59.788
  O      -79.966       8.175      64.037
  O      -81.589       9.146      65.767
  H      -83.471       9.281      59.025
  H      -79.539       7.882      64.864
  H      -78.512      13.337      55.441
  H      -79.380      11.616      61.566
  H      -82.494      12.484      59.583
  H      -81.619       9.722      60.665
  H      -80.595      13.477      54.387
  H      -83.926       9.533      61.469
  H      -82.023      13.063      55.276
  H      -83.950      12.185      62.395
  H      -82.385      11.588      64.184
  H      -83.538      10.294      63.947
  P      -86.143      10.903      60.834
  C      -86.707       9.116      59.049
  O      -86.983      10.402      59.567
  O      -86.684      12.392      61.076
  O      -86.277      10.079      62.074
  H      -87.256      12.407      61.867
  H      -87.602       8.738      58.548
  H      -86.422       8.414      59.836
  H      -85.897       9.187      58.319
  H      -83.772       6.137      64.578
  H      -83.839       7.699      65.357
  H      -82.557       6.580      65.753

 3  4  5  6  7  8  9  10  11  12  23  26  30  31 0
 6-311+G(2d,p)
 ****
 33  35  36  37  38 0
 6-311+G(2d,p)
 ****
 1  2  13  14  15  16  17  18  19  20  21  22  24  25 0
 3-21G
 ****
 27  28  29  32  34  39  40  41  42  43  44  45  46  47  48  49 0
 3-21G
 ****


