%nproc=1
%NoSave
%Mem=1900MB
#P OB98/GEN NMR

erre ene a

0 1
  C       97.218    -179.601     -55.338
  O       98.067    -180.696     -55.668
  P       98.771    -180.716     -57.107
  C      101.193    -179.787     -56.582
  O      100.351    -180.861     -56.937
  C      102.610    -180.317     -56.315
  O      102.613    -181.179     -55.158
  C      103.176    -181.128     -57.478
  O      103.808    -180.306     -58.443
  C      104.128    -182.070     -56.770
  O      105.348    -181.387     -56.429
  C      103.323    -182.408     -55.491
  N      102.346    -183.516     -55.555
  C      102.783    -184.833     -55.424
  O      103.956    -185.158     -55.261
  N      101.811    -185.797     -55.478
  C      100.464    -185.583     -55.473
  O       99.638    -186.488     -55.461
  C      100.052    -184.178     -55.459
  C      100.989    -183.228     -55.511
  O       98.578    -179.223     -57.643
  O       98.205    -181.729     -58.054
  H      105.889    -182.005     -55.908
  H       98.008    -179.218     -58.434
  H      102.117    -186.758     -55.458
  H       98.992    -183.962     -55.408
  H      100.692    -182.180     -55.502
  H      103.999    -182.632     -54.656
  H      104.415    -182.900     -57.410
  H      102.387    -181.734     -57.939
  H      103.267    -179.464     -56.104
  H      100.815    -179.273     -55.693
  H      101.209    -179.050     -57.391
  P      103.310    -180.334     -59.964
  C      101.747    -178.304     -60.079
  O      103.041    -178.801     -60.358
  O      102.205    -181.285     -60.275
  O      104.642    -180.672     -60.789
  H      104.699    -181.638     -60.980
  H      101.743    -177.224     -60.242
  H      101.474    -178.506     -59.039
  H      101.018    -178.768     -60.750
  H       96.829    -179.736     -54.350
  H       96.409    -179.554     -56.037
  H       97.778    -178.690     -55.379

 3  4  5  6  7  8  9  10  11  12  13  23  28  29  30  31  32 0
 6-311+G(2d,p)
 ****
 33  34 0
 6-311+G(2d,p)
 ****
 1  2  14  15  16  17  18  19  20  21  22  24  25  26  27 0
 3-21G
 ****
 35  36  37  38  39  40  41  42  43  44  45 0
 3-21G
 ****


