%nproc=1
%NoSave
%Mem=1900MB
#P OB98/GEN NMR

erre ene a

0 1
  C       95.844     -36.580     -82.939
  O       94.992     -37.113     -81.935
  P       93.653     -36.297     -81.584
  C       94.576     -33.879     -81.798
  O       94.148     -34.918     -80.927
  C       94.158     -32.515     -81.255
  O       92.722     -32.384     -81.303
  C       94.539     -32.265     -79.804
  O       95.889     -31.844     -79.670
  C       93.590     -31.137     -79.442
  O       94.100     -29.888     -79.958
  C       92.318     -31.536     -80.196
  N       87.455     -31.725     -78.624
  C       88.116     -30.842     -79.402
  N       89.414     -30.856     -79.767
  C       90.056     -31.894     -79.208
  C       89.521     -32.854     -78.364
  C       88.150     -32.754     -78.076
  N       87.473     -33.669     -77.306
  N       90.489     -33.763     -77.988
  C       91.585     -33.367     -78.602
  N       91.371     -32.246     -79.361
  O       93.053     -37.107     -80.339
  O       92.676     -36.180     -82.704
  H       93.406     -29.219     -79.807
  H       92.091     -36.946     -80.267
  H       87.518     -30.019     -79.792
  H       92.545     -33.862     -78.538
  H       91.797     -30.671     -80.623
  H       93.471     -31.008     -78.366
  H       94.322     -33.141     -79.177
  H       94.589     -31.744     -81.909
  H       94.123     -34.027     -82.783
  H       86.465     -33.631     -77.300
  H       87.946     -34.536     -77.070
  H       95.663     -33.927     -81.905
  P       96.941     -32.929     -79.121
  C       96.232     -32.601     -76.642
  O       97.253     -32.486     -77.618
  O       98.281     -32.569     -79.919
  O       96.516     -34.346     -79.323
  H       98.854     -33.357     -79.992
  H       96.687     -32.562     -75.650
  H       95.693     -33.546     -76.744
  H       95.532     -31.767     -76.741
  H       96.690     -37.222     -83.067
  H       96.177     -35.607     -82.645
  H       95.307     -36.510     -83.862

 3  4  5  6  7  8  9  10  11  12  22  25  29  30  31  32 0
 6-311+G(2d,p)
 ****
 33  36  37 0
 6-311+G(2d,p)
 ****
 1  2  13  14  15  16  17  18  19  20  21  23  24  26 0
 3-21G
 ****
 27  28  34  35  38  39  40  41  42  43  44  45  46  47  48 0
 3-21G
 ****


