%nproc=1
%NoSave
%Mem=1900MB
#P OB98/GEN NMR

erre ene a

0 1
  C      -24.465      48.456      25.719
  O      -23.878      49.505      26.474
  P      -22.973      49.101      27.735
  C      -20.564      49.824      27.130
  O      -21.512      48.765      27.158
  C      -19.215      49.360      27.666
  O      -19.384      48.913      29.039
  C      -18.588      48.199      26.877
  O      -17.188      48.453      26.697
  C      -18.723      47.016      27.820
  O      -17.739      46.018      27.569
  C      -18.587      47.719      29.170
  N      -17.333      43.935      32.269
  C      -16.550      44.643      31.379
  N      -15.264      44.245      31.260
  N      -16.986      45.647      30.667
  C      -18.284      45.954      30.911
  C      -19.157      45.335      31.774
  C      -18.676      44.186      32.511
  O      -19.344      43.462      33.246
  N      -20.386      45.944      31.760
  C      -20.259      46.925      30.890
  N      -19.015      46.943      30.311
  O      -23.557      47.670      28.149
  O      -23.013      50.053      28.880
  H      -17.915      45.662      26.678
  H      -23.835      47.685      29.085
  H      -16.950      43.158      32.779
  H      -21.043      47.623      30.624
  H      -17.545      48.020      29.342
  H      -19.715      46.568      27.695
  H      -14.854      43.503      31.803
  H      -19.057      48.010      25.907
  H      -14.668      44.766      30.628
  H      -18.536      50.221      27.693
  H      -20.931      50.651      27.748
  H      -20.458      50.176      26.099
  P      -16.536      47.874      25.348
  C      -16.533      50.171      24.121
  O      -17.027      48.847      24.176
  O      -17.355      46.524      25.092
  O      -15.064      47.644      25.437
  H      -16.827      45.902      24.557
  H      -15.715      50.336      24.829
  H      -17.346      50.863      24.353
  H      -16.170      50.373      23.111
  H      -25.036      48.871      24.915
  H      -25.106      47.878      26.351
  H      -23.695      47.828      25.322

 3  4  5  6  7  8  9  10  11  12  23  26  30  31  33  0
 6-311+G(2d,p)
 ****
 35  36  37  38 0
 6-311+G(2d,p)
 ****
 1  2  13  14  15  16  17  18  19  20  21  22  24  25  27  28  29 0
 3-21G
 ****
 32  34  39  40  41  42  43  44  45  46  47  48  49 0
 3-21G
 ****


