%nproc=1
%NoSave
%Mem=1900MB
#P OB98/GEN NMR

erre ene a

0 1
  C     -201.782     465.977     214.086
  O     -201.158     465.344     215.176
  P     -201.834     465.181     216.612
  C     -203.087     462.984     215.949
  O     -203.170     464.312     216.449
  C     -204.062     462.055     216.686
  O     -203.897     460.708     216.180
  C     -203.767     462.005     218.201
  O     -204.926     462.025     219.020
  C     -202.843     460.798     218.319
  O     -202.776     460.264     219.630
  C     -203.402     459.874     217.247
  N     -199.543     456.700     218.193
  C     -200.397     457.317     219.083
  N     -200.069     457.215     220.390
  N     -201.453     457.997     218.719
  C     -201.594     458.101     217.376
  C     -200.810     457.536     216.398
  C     -199.662     456.761     216.811
  O     -198.814     456.291     216.055
  N     -201.207     457.917     215.141
  C     -202.212     458.743     215.359
  N     -202.458     458.915     216.702
  O     -201.887     466.398     217.470
  O     -200.836     464.125     217.322
  H     -202.162     459.503     219.611
  H     -200.805     464.351     218.275
  H     -198.697     456.259     218.535
  H     -202.771     459.266     214.591
  H     -204.241     459.284     217.627
  H     -201.831     461.130     218.061
  H     -199.183     456.829     220.693
  H     -203.223     462.899     218.511
  H     -200.526     457.859     221.032
  H     -205.089     462.368     216.473
  H     -202.055     462.654     216.117
  H     -203.274     462.965     214.874
  P     -205.036     462.281     220.591
  C     -204.602     464.762     220.106
  O     -204.296     463.662     220.939
  O     -204.072     461.187     221.256
  O     -206.414     462.162     221.148
  H     -204.489     460.843     222.071
  H     -203.843     465.543     220.268
  H     -205.585     465.161     220.376
  H     -204.597     464.474     219.054
  H     -201.127     465.958     213.240
  H     -202.004     466.992     214.342
  H     -202.689     465.463     213.846

 3  4  5  6  7  8  9  10  11  12  23  26  30  31 0
 6-311+G(2d,p)
 ****
 33  35  36  37  38 0
 6-311+G(2d,p)
 ****
 1  2  13  14  15  16  17  18  19  20  21  22  24  25 0
 3-21G
 ****
 27  28  29  32  34  39  40  41  42  43  44  45  46  47  48  49 0
 3-21G
 ****


