%nproc=1
%NoSave
%Mem=1900MB
#P OB98/GEN NMR

erre ene a

0 1
  C     -487.244    -354.770    -239.491
  O     -487.292    -354.991    -238.094
  H     -487.521    -355.697    -239.999
  H     -486.231    -354.485    -239.795
  H     -487.952    -353.988    -239.766
  P     -486.881    -353.751    -237.156
  C     -489.243    -353.472    -236.159
  O     -488.243    -352.907    -236.999
  C     -490.590    -352.780    -236.396
  O     -490.873    -352.801    -237.818
  C     -491.759    -353.469    -235.679
  O     -492.667    -352.472    -235.197
  C     -492.430    -354.271    -236.785
  O     -493.805    -354.515    -236.516
  C     -492.164    -353.395    -238.011
  N     -493.871    -353.521    -242.819
  C     -493.894    -352.553    -241.881
  N     -493.394    -352.593    -240.617
  C     -492.796    -353.785    -240.390
  C     -492.692    -354.854    -241.252
  C     -493.280    -354.703    -242.523
  N     -493.281    -355.693    -243.480
  N     -492.035    -355.908    -240.635
  C     -491.743    -355.466    -239.430
  N     -492.189    -354.180    -239.231
  O     -485.690    -352.966    -237.602
  O     -486.744    -354.457    -235.725
  H     -494.226    -353.660    -236.284
  H     -487.480    -355.075    -235.563
  H     -494.372    -351.624    -242.170
  H     -491.210    -356.026    -238.667
  H     -492.909    -352.593    -238.125
  H     -491.924    -355.239    -236.886
  H     -491.434    -354.099    -234.853
  H     -490.505    -351.729    -236.099
  H     -488.954    -353.360    -235.106
  H     -493.711    -355.488    -244.371
  H     -492.824    -356.571    -243.278
  H     -489.316    -354.539    -236.388
  P     -492.375    -351.807    -233.781
  C     -491.744    -349.536    -234.836
  O     -491.335    -350.594    -233.970
  O     -492.058    -352.748    -232.662
  O     -493.752    -351.024    -233.474
  H     -493.941    -351.089    -232.513
  H     -490.974    -348.794    -234.881
  H     -492.643    -349.095    -234.460
  H     -491.921    -349.926    -235.817

 6  7  8  9  10  11  12  13  14  15  25  28  32  33  34  35 0
 6-311+G(2d,p)
 ****
 36  39  40 0
 6-311+G(2d,p)
 ****
 1  2  3  4  5  16  17  18  19  20  21  22  23  24 0
 3-21G
 ****
 26  27  29  30  31  37  38  41  42  43  44  45  46  47 0
 3-21G
 ****
 48 0
 3-21G
 ****


