%nproc=1
%NoSave
%Mem=1900MB
#P OB98/GEN NMR

erre ene a

0 1
  C      286.302     113.316      92.107
  O      286.504     112.584      93.301
  H      285.292     113.114      91.739
  H      287.026     113.004      91.349
  H      286.401     114.387      92.299
  P      287.930     112.758      94.012
  C      287.454     114.719      95.664
  O      287.626     113.321      95.483
  C      287.561     115.082      97.151
  O      287.491     116.532      97.283
  C      286.430     114.501      98.015
  O      286.944     114.307      99.344
  C      285.428     115.645      98.020
  O      284.452     115.459      99.018
  C      286.388     116.821      98.172
  N      285.806     121.664      99.703
  C      286.518     120.637     100.217
  N      286.633     119.380      99.747
  C      285.933     119.230      98.610
  C      285.170     120.187      97.961
  C      285.115     121.458      98.556
  N      284.386     122.502      98.038
  N      284.595     119.657      96.816
  C      285.007     118.405      96.779
  N      285.810     118.102      97.845
  O      288.569     114.011      93.248
  O      288.820     111.562      93.969
  H      283.763     116.155      98.968
  H      289.151     113.701      92.529
  H      287.062     120.857     101.133
  H      284.750     117.682      96.018
  H      286.792     116.887      99.190
  H      284.894     115.697      97.065
  H      286.034     113.555      97.635
  H      288.546     114.778      97.523
  H      286.466     114.998      95.283
  H      288.223     115.258      95.103
  H      284.385     123.378      98.535
  H      283.852     122.358      97.194
  P      287.035     112.815      99.938
  C      289.003     111.562      98.753
  O      288.561     112.325      99.865
  O      286.356     111.951      98.769
  O      286.334     112.590     101.236
  H      285.953     111.147      99.150
  H      290.040     111.325      98.872
  H      288.867     112.128      97.855
  H      288.435     110.657      98.693

 6  7  8  9  10  11  12  13  14  15  25  28  32  33  34  35 0
 6-311+G(2d,p)
 ****
 36  37  40 0
 6-311+G(2d,p)
 ****
 1  2  3  4  5  16  17  18  19  20  21  22  23  24 0
 3-21G
 ****
 26  27  29  30  31  38  39 41  42  43  44  45  46  47  48 0
 3-21G
 ****


