%nproc=1
%NoSave
%Mem=1900MB
#P OB98/GEN NMR

erre ene a

0 1
  C      184.158     153.737     178.925
  O      182.956     154.037     178.215
  P      182.938     153.741     176.635
  C      182.033     151.320     176.878
  O      183.119     152.158     176.487
  C      181.362     150.704     175.655
  O      182.334     150.006     174.849
  C      180.273     149.698     175.967
  O      179.030     150.306     176.276
  C      180.183     148.941     174.646
  O      179.397     149.714     173.708
  C      181.653     148.892     174.205
  N      182.879     144.195     172.593
  C      182.147     145.178     172.031
  N      181.847     146.390     172.536
  C      182.373     146.547     173.755
  C      183.112     145.607     174.480
  C      183.369     144.386     173.845
  N      184.146     143.398     174.417
  N      183.464     146.126     175.706
  C      182.975     147.341     175.728
  N      182.304     147.644     174.571
  O      184.355     154.323     176.146
  O      181.791     154.347     175.896
  H      179.342     149.200     172.897
  H      184.310     154.536     175.193
  H      181.750     144.956     171.035
  H      183.071     148.039     176.554
  H      181.764     149.021     173.130
  H      179.690     147.972     174.745
  H      180.590     148.997     176.763
  H      180.955     151.525     175.045
  H      181.305     151.915     177.428
  H      184.436     142.623     173.821
  H      184.669     143.625     175.251
  H      182.405     150.530     177.537
  P      178.216     149.716     177.541
  C      179.039     151.575     179.150
  O      179.033     150.206     178.826
  O      178.521     148.149     177.456
  O      176.758     150.022     177.521
  H      177.804     147.643     177.887
  H      179.372     151.695     180.192
  H      178.057     152.023     179.041
  H      179.753     152.109     178.511
  H      184.032     153.981     179.959
  H      184.965     154.311     178.519
  H      184.378     152.694     178.829

 3  4  5  6  7  8  9  10  11  12  22  25  29  30  31  32 0
 6-311+G(2d,p)
 ****
 33  36  37 0
 6-311+G(2d,p)
 ****
 1  2  13  14  15  16  17  18  19  20  21  23  24  26 0
 3-21G
 ****
 27  28  34  35  38  39  40  41  42  43  44  45  46  47  48 0
 3-21G
 ****


