%nproc=1
%NoSave
%Mem=1900MB
#P OB98/GEN NMR

erre ene a

0 1
  C      -58.536     194.803     -19.628
  O      -58.716     196.119     -19.145
  H      -57.610     194.766     -20.208
  H      -59.369     194.530     -20.281
  H      -58.462     194.093     -18.800
  P      -59.911     196.343     -18.098
  C      -59.198     194.996     -15.997
  O      -59.973     195.024     -17.187
  C      -59.870     194.113     -14.950
  O      -60.966     194.818     -14.326
  C      -60.457     192.820     -15.506
  O      -59.470     191.807     -15.642
  C      -61.452     192.473     -14.411
  O      -60.756     191.912     -13.280
  C      -62.020     193.853     -14.054
  N      -66.599     192.323     -15.596
  C      -65.650     191.660     -14.842
  N      -65.960     190.406     -14.451
  N      -64.497     192.176     -14.506
  C      -64.317     193.433     -14.976
  C      -65.183     194.194     -15.729
  C      -66.457     193.614     -16.088
  O      -67.343     194.166     -16.733
  N      -64.655     195.427     -16.008
  C      -63.465     195.406     -15.441
  N      -63.208     194.216     -14.808
  O      -61.227     196.225     -19.006
  O      -59.879     197.637     -17.358
  H      -61.437     191.632     -12.642
  H      -61.897     196.851     -18.672
  H      -67.466     191.875     -15.837
  H      -62.756     196.223     -15.459
  H      -62.277     193.936     -12.992
  H      -62.190     191.736     -14.730
  H      -66.809     189.932     -14.718
  H      -60.995     192.993     -16.446
  H      -65.294     189.913     -13.870
  H      -59.132     193.897     -14.168
  H      -59.105     196.014     -15.605
  H      -58.200     194.612     -16.231
  P      -59.834     190.531     -16.549
  C      -59.501     191.930     -18.712
  O      -60.383     191.129     -17.933
  O      -61.152     189.955     -15.847
  O      -58.759     189.506     -16.656
  H      -61.259     189.009     -16.064
  H      -60.004     192.255     -19.599
  H      -58.640     191.355     -18.980
  H      -59.197     192.783     -18.142

 6  7  8  9  10  11  12  13  14  15  26  29  33  34 0
 6-311+G(2d,p)
 ****
 36  38  39  40  41 0
 6-311+G(2d,p)
 ****
 1  2  3  4  5  16  17  18  19  20  21  22  23  24  25 0
 3-21G
 ****
 27  28  30  31  32  35  37  42  43  44  45  46  47 0
 3-21G
 ****
 48  49 0
 3-21G
 ****


