%nproc=1
%NoSave
%Mem=1900MB
#P OB98/GEN NMR

erre ene a

0 1
  C     -172.764    -247.789     -86.162
  O     -173.269    -248.770     -85.250
  P     -174.384    -249.772     -85.816
  C     -172.946    -251.857     -85.243
  O     -174.195    -251.194     -85.095
  C     -172.711    -252.802     -84.065
  O     -172.332    -252.086     -82.870
  C     -173.952    -253.602     -83.675
  O     -174.194    -254.650     -84.602
  C     -173.559    -254.068     -82.277
  O     -172.673    -255.199     -82.354
  C     -172.799    -252.850     -81.732
  N     -172.682    -249.380     -77.974
  C     -171.700    -250.047     -78.619
  N     -171.814    -250.958     -79.608
  C     -173.103    -251.149     -79.931
  C     -174.212    -250.538     -79.369
  C     -173.964    -249.614     -78.338
  N     -174.971    -248.944     -77.671
  N     -175.373    -250.994     -79.963
  C     -174.971    -251.879     -80.853
  N     -173.607    -251.999     -80.879
  O     -173.913    -250.042     -87.320
  O     -175.771    -249.217     -85.763
  H     -173.151    -255.913     -82.823
  H     -174.511    -249.590     -87.944
  H     -170.690    -249.819     -78.293
  H     -175.626    -252.454     -81.496
  H     -171.915    -253.141     -81.154
  H     -174.419    -254.366     -81.670
  H     -174.824    -252.941     -83.618
  H     -171.895    -253.489     -84.336
  H     -172.133    -251.131     -85.300
  H     -174.714    -248.360     -76.896
  H     -175.929    -249.179     -77.878
  H     -172.948    -252.403     -86.193
  P     -175.657    -254.737     -85.254
  C     -174.832    -256.488     -86.943
  O     -175.707    -256.227     -85.862
  O     -175.491    -253.830     -86.555
  O     -176.778    -254.377     -84.339
  H     -174.664    -254.031     -87.031
  H     -174.939    -257.538     -87.237
  H     -173.794    -256.307     -86.641
  H     -175.086    -255.850     -87.797
  H     -172.031    -247.186     -85.667
  H     -173.568    -247.169     -86.500
  H     -172.315    -248.279     -87.001

 3  4  5  6  7  8  9  10  11  12  22  25  29  30  31  32 0
 6-311+G(2d,p)
 ****
 33  36  37 0
 6-311+G(2d,p)
 ****
 1  2  13  14  15  16  17  18  19  20  21  23  24  26 0
 3-21G
 ****
 27  28  34  35  38  39  40  41  42  43  44  45  46  47  48 0
 3-21G
 ****


