%nproc=1
%NoSave
%Mem=1900MB
#P OB98/GEN NMR

erre ene a

0 1
  C       63.587    -974.325     100.018
  O       63.888    -973.803      98.711
  P       63.221    -972.414      98.256
  C       62.062    -973.568      96.224
  O       62.809    -972.469      96.698
  C       61.844    -973.487      94.706
  O       60.829    -972.484      94.393
  C       63.095    -973.108      93.897
  O       63.017    -973.776      92.634
  C       62.933    -971.611      93.713
  O       63.714    -971.086      92.642
  C       61.420    -971.529      93.494
  N       60.856    -970.191      93.695
  C       61.027    -969.255      92.683
  O       61.685    -969.451      91.648
  N       60.437    -968.033      92.891
  C       59.744    -967.650      94.014
  O       59.273    -966.536      94.159
  C       59.623    -968.697      95.059
  C       60.178    -969.891      94.849
  O       64.497    -971.432      98.232
  O       62.167    -971.870      99.164
  H       63.342    -971.435      91.818
  H       64.270    -970.590      98.673
  H       60.546    -967.338      92.167
  H       59.079    -968.428      95.954
  H       60.070    -970.661      95.596
  H       61.184    -971.879      92.475
  H       63.248    -971.097      94.633
  H       64.034    -973.379      94.410
  H       61.455    -974.445      94.358
  H       61.085    -973.593      96.714
  H       62.597    -974.507      96.475
  P       64.055    -974.969      92.322
  C       65.724    -973.890      90.622
  O       64.608    -974.729      90.834
  O       63.030    -976.198      92.149
  O       65.067    -975.197      93.391
  H       62.267    -975.970      91.591
  H       66.491    -974.047      91.389
  H       65.418    -972.851      90.620
  H       66.150    -974.137      89.644
  H       64.108    -975.249     100.162
  H       62.534    -974.493     100.101
  H       63.896    -973.622     100.763

 3  4  5  6  7  8  9  10  11  12  13  23  28  29  30  31  32 0
 6-311+G(2d,p)
 ****
 33  34 0
 6-311+G(2d,p)
 ****
 1  2  14  15  16  17  18  19  20  21  22  24  25  26 0
 3-21G
 ****
 27  35  36  37  38  39  40  41  42  43  44  45 0
 3-21G
 ****


