%nproc=1
%NoSave
%Mem=1900MB
#P OB98/GEN NMR

erre ene a

0 1
  C      128.414      70.993     266.788
  O      129.556      71.026     265.953
  H      127.554      70.674     266.194
  H      128.215      71.991     267.191
  H      128.565      70.283     267.604
  P      130.940      71.451     266.649
  C      131.922      73.733     267.384
  O      130.784      73.027     266.906
  C      131.535      75.144     267.820
  O      131.026      75.135     269.168
  C      132.687      76.140     267.818
  O      132.929      76.630     266.511
  C      132.127      77.225     268.730
  O      131.210      78.055     267.992
  C      131.359      76.408     269.788
  N      132.862      78.363     274.290
  C      132.290      78.938     273.212
  N      131.956      78.365     272.032
  C      132.274      77.061     272.029
  C      132.862      76.337     273.058
  C      133.153      77.044     274.240
  N      133.728      76.452     275.344
  N      133.042      75.020     272.693
  C      132.518      74.936     271.485
  N      132.076      76.149     271.026
  O      132.178      71.013     265.947
  O      130.740      70.844     268.120
  H      131.697      78.426     267.231
  H      129.819      70.958     268.415
  H      132.066      79.996     273.303
  H      132.425      74.022     270.910
  H      130.417      76.893     270.068
  H      132.907      77.881     269.123
  H      133.587      75.716     268.277
  H      130.719      75.484     267.168
  H      132.694      73.782     266.610
  H      134.058      77.060     276.080
  H      134.056      75.500     275.257
  H      132.322      73.170     268.235
  P      133.969      77.827     266.264
  C      133.800      80.388     266.463
  O      133.334      79.134     266.949
  O      134.393      78.016     264.848
  O      135.208      77.486     267.216
  H      136.049      77.718     266.776
  H      133.310      81.179     266.990
  H      133.584      80.468     265.418
  H      134.857      80.459     266.615

 6  7  8  9  10  11  12  13  14  15  25  28  32  33  34  35 0
 6-311+G(2d,p)
 ****
 36  39  40 0
 6-311+G(2d,p)
 ****
 1  2  3  4  5  16  17  18  19  20  21  22  23  24 0
 3-21G
 ****
 26  27  29  30  31  37  38  41  42  43  44  45  46  47 0
 3-21G
 ****
 48 0
 3-21G
 ****


