%nproc=1
%NoSave
%Mem=1900MB
#P OB98/GEN NMR

erre ene a

0 1
  C      207.880    -192.146      -4.743
  O      206.812    -192.469      -3.837
  P      205.308    -192.561      -4.400
  C      204.728    -194.987      -3.632
  O      204.446    -193.600      -3.530
  C      203.926    -195.796      -2.594
  O      204.541    -195.671      -1.283
  C      202.460    -195.365      -2.445
  O      201.701    -196.540      -2.121
  C      202.510    -194.432      -1.247
  O      201.247    -194.245      -0.627
  C      203.536    -195.170      -0.377
  N      204.138    -194.347       0.675
  C      204.688    -194.993       1.775
  O      204.655    -196.209       1.961
  N      205.276    -194.180       2.714
  C      205.324    -192.816       2.678
  O      205.839    -192.143       3.566
  C      204.702    -192.184       1.506
  C      204.146    -192.967       0.575
  O      205.515    -193.364      -5.774
  O      204.640    -191.254      -4.664
  H      201.389    -193.661       0.140
  H      205.015    -192.926      -6.488
  H      205.693    -194.633       3.514
  H      204.726    -191.104       1.438
  H      203.689    -192.523      -0.305
  H      203.063    -196.047       0.083
  H      202.875    -193.451      -1.565
  H      202.059    -194.888      -3.345
  H      203.990    -196.855      -2.872
  H      205.793    -195.154      -3.465
  H      204.477    -195.326      -4.644
  P      200.301    -196.778      -2.877
  C      200.795    -199.173      -3.826
  O      200.061    -198.358      -2.929
  O      200.724    -196.420      -4.386
  O      199.173    -195.945      -2.365
  H      201.570    -196.824      -4.644
  H      201.844    -198.862      -3.876
  H      200.352    -199.104      -4.825
  H      200.744    -200.205      -3.485
  H      208.807    -192.126      -4.209
  H      207.699    -191.186      -5.180
  H      207.929    -192.885      -5.515

 3  4  5  6  7  8  9  10  11  12  13  23  28  29  30  31  32 0
 6-311+G(2d,p)
 ****
 33  34 0
 6-311+G(2d,p)
 ****
 1  2  14  15  16  17  18  19  20  21  22  24  25  26 0
 3-21G
 ****
 27  35  36  37  38  39  40  41  42  43  44  45 0
 3-21G
 ****


