%nproc=1
%NoSave
%Mem=1900MB
#P OB98/GEN NMR

erre ene a

0 1
  C     -150.767    -113.295      69.601
  O     -149.954    -114.402      69.225
  P     -148.627    -114.096      68.381
  C     -149.671    -114.457      66.002
  O     -149.078    -113.572      66.934
  C     -149.084    -114.249      64.593
  O     -149.555    -115.319      63.735
  C     -149.503    -112.957      63.897
  O     -148.587    -112.691      62.832
  C     -150.848    -113.340      63.321
  O     -151.253    -112.446      62.289
  C     -150.617    -114.805      62.887
  N     -151.820    -115.656      63.009
  C     -152.565    -115.921      61.863
  O     -152.283    -115.488      60.746
  N     -153.689    -116.683      62.035
  C     -154.113    -117.229      63.209
  O     -155.174    -117.828      63.325
  C     -153.219    -117.037      64.358
  C     -152.140    -116.266      64.212
  O     -148.015    -115.545      68.104
  O     -147.662    -113.202      69.085
  H     -150.514    -112.414      61.639
  H     -147.237    -115.698      68.671
  H     -154.274    -116.826      61.225
  H     -153.488    -117.512      65.293
  H     -151.479    -116.096      65.059
  H     -150.285    -114.860      61.842
  H     -151.611    -113.298      64.104
  H     -149.572    -112.087      64.556
  H     -147.991    -114.323      64.644
  H     -150.753    -114.311      65.987
  H     -149.496    -115.494      66.316
  P     -147.144    -112.102      63.211
  C     -147.661    -109.832      62.119
  O     -147.320    -110.511      63.313
  O     -146.005    -112.575      62.374
  O     -146.975    -112.533      64.747
  H     -146.033    -112.494      64.996
  H     -148.239    -108.940      62.373
  H     -148.260    -110.465      61.456
  H     -146.746    -109.530      61.604
  H     -151.612    -113.645      70.156
  H     -151.103    -112.785      68.723
  H     -150.196    -112.623      70.207

 3  4  5  6  7  8  9  10  11  12  13  23  28  29  30  31  32 0
 6-311+G(2d,p)
 ****
 33  34 0
 6-311+G(2d,p)
 ****
 1  2  14  15  16  17  18  19  20  21  22  24  25  26  27 0
 3-21G
 ****
 35  36  37  38  39  40  41  42  43  44  45 0
 3-21G
 ****


