%nproc=1
%NoSave
%Mem=1900MB
#P OB98/GEN NMR

erre ene a

0 1
  C     -459.100      60.220    -325.327
  O     -458.963      59.200    -326.311
  P     -457.644      59.239    -327.247
  C     -456.327      61.121    -328.448
  O     -457.516      60.739    -327.768
  C     -456.669      61.860    -329.737
  O     -457.386      63.081    -329.466
  C     -455.442      62.290    -330.559
  O     -454.923      61.223    -331.343
  C     -456.064      63.365    -331.450
  O     -456.748      62.743    -332.559
  C     -457.048      64.038    -330.496
  N     -458.266      68.459    -328.327
  C     -459.071      67.364    -328.637
  N     -460.384      67.506    -328.378
  N     -458.626      66.240    -329.136
  C     -457.276      66.265    -329.357
  C     -456.374      67.266    -329.066
  C     -456.891      68.505    -328.525
  O     -456.238      69.505    -328.287
  N     -455.097      66.902    -329.426
  C     -455.214      65.668    -329.886
  N     -456.523      65.253    -329.897
  O     -458.111      58.431    -328.555
  O     -456.420      58.652    -326.625
  H     -456.184      61.997    -332.846
  H     -457.321      58.162    -329.063
  H     -458.664      69.285    -327.945
  H     -454.399      65.062    -330.236
  H     -457.998      64.297    -331.001
  H     -455.308      64.032    -331.875
  H     -460.812      68.357    -328.051
  H     -454.682      62.734    -329.914
  H     -461.020      66.749    -328.650
  H     -457.316      61.212    -330.346
  H     -455.749      60.231    -328.679
  H     -455.726      61.770    -327.793
  P     -453.374      61.323    -331.733
  C     -451.971      63.030    -333.097
  O     -453.216      62.699    -332.538
  O     -453.209      60.180    -332.853
  O     -452.431      61.115    -330.585
  H     -452.303      59.862    -332.887
  H     -452.098      63.836    -333.817
  H     -451.540      62.170    -333.619
  H     -451.271      63.352    -332.319
  H     -460.011      60.073    -324.785
  H     -459.121      61.177    -325.806
  H     -458.272      60.177    -324.651

 3  4  5  6  7  8  9  10  11  12  23  26  30  31 0
 6-311+G(2d,p)
 ****
 33  35  36  37  38 0
 6-311+G(2d,p)
 ****
 1  2  13  14  15  16  17  18  19  20  21  22  24  25 0
 3-21G
 ****
 27  28  29  32  34  39  40  41  42  43  44  45  46  47  48  49 0
 3-21G
 ****


