%nproc=1
%NoSave
%Mem=1900MB
#P OB98/GEN NMR

erre ene a

0 1
  C      610.531     -27.066     -84.809
  O      609.519     -26.119     -84.522
  P      608.984     -26.040     -83.007
  C      606.649     -26.698     -83.951
  O      607.650     -26.934     -82.965
  C      605.425     -27.568     -83.685
  O      605.802     -28.955     -83.634
  C      604.749     -27.277     -82.348
  O      603.972     -26.100     -82.432
  C      603.928     -28.547     -82.147
  O      602.656     -28.453     -82.799
  C      604.815     -29.628     -82.812
  N      605.438     -30.515     -81.853
  C      604.602     -31.489     -81.288
  O      603.407     -31.547     -81.609
  N      605.130     -32.353     -80.365
  C      606.381     -32.245     -80.011
  N      606.849     -33.130     -79.099
  C      607.292     -31.217     -80.567
  C      606.758     -30.396     -81.474
  O      608.439     -24.545     -82.889
  O      610.013     -26.360     -81.967
  H      602.818     -28.703     -83.741
  H      608.472     -24.234     -81.965
  H      608.317     -31.173     -80.251
  H      607.346     -29.613     -81.930
  H      604.210     -30.238     -83.505
  H      603.732     -28.737     -81.087
  H      605.492     -27.188     -81.552
  H      604.712     -27.425     -84.513
  H      606.199     -33.811     -78.726
  H      607.047     -26.947     -84.941
  H      607.810     -33.145     -78.783
  H      606.389     -25.634     -83.942
  P      603.410     -25.485     -81.057
  C      600.950     -25.595     -81.767
  O      601.942     -26.100     -80.897
  O      603.090     -23.968     -81.485
  O      604.296     -25.556     -79.866
  H      602.837     -23.451     -80.687
  H      600.046     -26.204     -81.667
  H      601.287     -25.649     -82.807
  H      600.704     -24.570     -81.505
  H      610.789     -27.009     -85.846
  H      610.174     -28.049     -84.584
  H      611.395     -26.856     -84.214

 3  4  5  6  7  8  9  10  11  12  13  21  23  27  28  29  30  32 0
 6-311+G(2d,p)
 ****
 34  35 0
 6-311+G(2d,p)
 ****
 1  2  14  15  16  17  18  19  20  22  24  25  26 0
 3-21G
 ****
 31  33  36  37  38  39  40  41  42  43  44  45  46 0
 3-21G
 ****


