%nproc=1
%NoSave
%Mem=1900MB
#P OB98/GEN NMR

erre ene a

0 1
  C     -570.701    -441.280      -0.765
  O     -571.763    -440.717      -1.515
  H     -570.125    -441.947      -1.409
  H     -571.107    -441.865       0.075
  H     -570.047    -440.490      -0.393
  P     -572.766    -439.749      -0.724
  C     -571.483    -437.585      -1.354
  O     -571.913    -438.452      -0.313
  C     -572.177    -436.233      -1.241
  O     -571.914    -435.612       0.037
  C     -571.773    -435.227      -2.311
  O     -572.502    -435.434      -3.515
  C     -572.120    -433.906      -1.639
  O     -573.533    -433.635      -1.725
  C     -571.729    -434.188      -0.181
  N     -568.578    -430.293       0.553
  C     -569.891    -430.308       0.133
  N     -570.457    -429.113      -0.166
  N     -570.600    -431.410       0.001
  C     -569.900    -432.528       0.279
  C     -568.593    -432.654       0.694
  C     -567.831    -431.422       0.885
  O     -566.694    -431.338       1.333
  N     -568.241    -433.973       0.891
  C     -569.333    -434.641       0.545
  N     -570.355    -433.815       0.165
  O     -572.979    -440.502       0.678
  O     -574.074    -439.482      -1.396
  H     -573.721    -432.766      -1.313
  H     -573.910    -440.394       0.953
  H     -568.093    -429.418       0.660
  H     -569.418    -435.722       0.578
  H     -572.377    -433.666       0.540
  H     -571.610    -433.062      -2.102
  H     -569.885    -428.298      -0.365
  H     -570.691    -435.260      -2.502
  H     -571.393    -429.135      -0.537
  H     -573.267    -436.419      -1.288
  H     -571.723    -438.046      -2.319
  H     -570.401    -437.445      -1.281
  P     -571.868    -434.909      -4.887
  C     -571.811    -437.275      -5.975
  O     -571.070    -436.127      -5.561
  O     -570.702    -433.926      -4.399
  O     -572.834    -434.203      -5.787
  H     -570.985    -432.990      -4.536
  H     -571.144    -437.995      -6.402
  H     -572.539    -436.986      -6.704
  H     -572.305    -437.705      -5.129

 6  7  8  9  10  11  12  13  14  15  26  29  33  34 0
 6-311+G(2d,p)
 ****
 36  38  39  40  41 0
 6-311+G(2d,p)
 ****
 1  2  3  4  5  16  17  18  19  20  21  22  23  24  25 0
 3-21G
 ****
 27  28  30  31  32  35  37  42  43  44  45  46  47 0
 3-21G
 ****
 48  49 0
 3-21G
 ****


