%nproc=1
%NoSave
%Mem=1900MB
#P OB98/GEN NMR

erre ene a

0 1
  C      167.538      57.563    -681.280
  O      166.376      56.986    -680.725
  H      168.381      57.376    -680.608
  H      167.409      58.646    -681.377
  H      167.769      57.129    -682.254
  P      165.036      56.940    -681.602
  C      164.175      59.265    -680.884
  O      164.662      58.463    -681.952
  C      162.698      59.585    -681.102
  O      162.144      60.222    -679.936
  C      162.435      60.542    -682.269
  O      162.562      59.877    -683.514
  C      161.022      61.009    -681.928
  O      160.047      60.041    -682.341
  C      161.092      61.108    -680.385
  N      161.310      62.473    -679.905
  C      160.295      63.389    -680.153
  O      159.277      63.110    -680.778
  N      160.508      64.659    -679.676
  C      161.639      65.107    -679.063
  O      161.805      66.262    -678.694
  C      162.694      64.102    -678.853
  C      162.493      62.851    -679.276
  O      163.908      56.129    -681.045
  O      165.533      56.365    -683.014
  H      160.380      59.165    -682.069
  H      165.316      55.416    -683.072
  H      159.788      65.342    -679.853
  H      163.613      64.416    -678.372
  H      163.252      62.101    -679.144
  H      160.155      60.739    -679.938
  H      160.760      61.947    -682.425
  H      163.114      61.402    -682.210
  H      162.166      58.633    -681.261
  H      164.741      60.202    -680.855
  H      164.316      58.729    -679.942
  P      163.356      60.558    -684.725
  C      161.422      61.279    -686.246
  O      162.422      61.716    -685.331
  O      163.912      59.602    -685.733
  O      164.535      61.370    -684.000
  H      165.381      60.909    -684.128
  H      160.859      62.122    -686.588
  H      160.768      60.588    -685.756
  H      161.888      60.798    -687.081

 6  7  8  9  10  11  12  13  14  15  16  26  31  32  33  34  35 0
 6-311+G(2d,p)
 ****
 36  37 0
 6-311+G(2d,p)
 ****
 1  2  3  4  5  17  18  19  20  21  22  23  24  25 0
 3-21G
 ****
 27  28  29  30  38  39  40  41  42  43  44  45 0
 3-21G
 ****


