%nproc=1
%NoSave
%Mem=1900MB
#P OB98/GEN NMR

erre ene a

0 1
  C      350.062      40.229       7.698
  O      351.289      39.695       8.195
  P      351.885      38.420       7.419
  C      351.157      36.506       9.003
  O      350.974      37.146       7.750
  C      351.100      34.979       8.885
  O      351.372      34.347      10.164
  C      349.736      34.457       8.416
  O      349.982      33.291       7.617
  C      349.066      34.035       9.699
  O      348.011      33.103       9.459
  C      350.265      33.480      10.484
  N      350.030      33.418      11.925
  C      349.169      32.413      12.385
  O      348.590      31.680      11.581
  N      348.950      32.292      13.735
  C      349.501      33.131      14.555
  N      349.243      32.960      15.880
  C      350.368      34.238      14.109
  C      350.590      34.314      12.798
  O      353.256      38.122       8.191
  O      352.127      38.671       5.963
  H      347.488      33.428       8.695
  H      353.988      38.034       7.554
  H      350.791      34.932      14.831
  H      351.214      35.091      12.379
  H      350.518      32.472      10.137
  H      348.642      34.914      10.215
  H      349.169      35.187       7.830
  H      351.880      34.662       8.184
  H      348.648      32.183      16.146
  H      350.384      36.840       9.703
  H      349.617      33.554      16.603
  H      352.116      36.829       9.429
  P      349.877      33.419       6.023
  C      347.568      32.290       5.901
  O      348.303      33.490       5.719
  O      350.221      31.922       5.557
  O      350.743      34.420       5.335
  H      350.265      31.878       4.587
  H      346.511      32.507       5.786
  H      347.739      31.890       6.906
  H      347.867      31.556       5.152
  H      349.771      41.068       8.294
  H      349.301      39.478       7.744
  H      350.194      40.541       6.683

 3  4  5  6  7  8  9  10  11  12  13  21  23  27  28  29  30  32 0
 6-311+G(2d,p)
 ****
 34  35 0
 6-311+G(2d,p)
 ****
 1  2  14  15  16  17  18  19  20  22  24  25  26 0
 3-21G
 ****
 31  33  36  37  38  39  40  41  42  43  44  45  46 0
 3-21G
 ****


