%nproc=1
%NoSave
%Mem=1900MB
#P OB98/GEN NMR

erre ene a

0 1
  C     -895.240    -318.705    -899.235
  O     -894.320    -319.178    -898.255
  P     -894.010    -318.204    -897.015
  C     -894.540    -319.755    -895.015
  O     -894.930    -318.616    -895.755
  C     -895.060    -319.675    -893.535
  O     -894.130    -318.884    -892.725
  C     -896.410    -319.030    -893.415
  O     -897.130    -319.658    -892.345
  C     -896.110    -317.580    -893.035
  O     -897.220    -316.919    -892.455
  C     -894.900    -317.839    -892.085
  N     -894.060    -313.792    -889.105
  C     -894.950    -314.785    -889.045
  N     -895.120    -315.836    -889.875
  C     -894.240    -315.756    -890.905
  C     -893.280    -314.779    -891.125
  C     -893.210    -313.743    -890.185
  N     -892.350    -312.694    -890.275
  N     -892.580    -315.028    -892.285
  C     -893.110    -316.145    -892.755
  N     -894.080    -316.671    -891.935
  O     -894.630    -316.767    -897.485
  O     -892.550    -318.065    -896.705
  H     -896.930    -315.984    -892.235
  H     -893.900    -316.177    -897.725
  H     -895.610    -314.788    -888.165
  H     -892.820    -316.641    -893.705
  H     -895.200    -318.172    -891.105
  H     -895.810    -317.017    -893.925
  H     -897.060    -319.070    -894.345
  H     -895.100    -320.714    -893.135
  H     -893.430    -319.826    -895.015
  H     -892.380    -311.967    -889.555
  H     -891.730    -312.635    -891.085
  H     -894.880    -320.661    -895.505
  P     -898.550    -320.359    -892.675
  C     -897.440    -322.709    -892.455
  O     -898.150    -321.828    -893.285
  O     -899.020    -319.588    -894.015
  O     -899.540    -320.309    -891.615
  H     -900.000    -319.597    -894.075
  H     -897.840    -323.711    -892.545
  H     -897.470    -322.422    -891.395
  H     -896.380    -322.728    -892.745
  H     -895.357    -319.444    -900.000
  H     -894.867    -317.800    -899.666
  H     -896.187    -318.517    -898.773

 3  4  5  6  7  8  9  10  11  12  22  25  29  30  31  32 0
 6-311+G(2d,p)
 ****
 33  36  37 0
 6-311+G(2d,p)
 ****
 1  2  13  14  15  16  17  18  19  20  21  23  24  26 0
 3-21G
 ****
 27  28  34  35  38  39  40  41  42  43  44  45  46  47  48 0
 3-21G
 ****


