%nproc=1
%NoSave
%Mem=1900MB
#P OB98/GEN NMR

erre ene a

0 1
  C       70.503     -37.953     121.377
  O       71.358     -38.789     120.626
  H       69.468     -38.227     121.156
  H       70.652     -36.907     121.100
  H       70.677     -38.085     122.447
  P       72.943     -38.587     120.769
  C       73.159     -39.782     123.057
  O       73.419     -39.837     121.664
  C       73.728     -41.018     123.748
  O       72.943     -42.193     123.452
  C       75.146     -41.391     123.330
  O       76.143     -40.532     123.854
  C       75.228     -42.792     123.907
  O       75.410     -42.718     125.332
  C       73.830     -43.343     123.547
  N       73.826     -44.098     122.296
  C       74.112     -45.465     122.388
  O       74.361     -45.983     123.475
  N       74.145     -46.214     121.236
  C       73.935     -45.643     120.090
  N       73.986     -46.431     118.981
  C       73.650     -44.203     119.945
  C       73.609     -43.499     121.074
  O       73.392     -37.246     121.251
  O       73.529     -38.979     119.333
  H       76.136     -42.088     125.493
  H       74.509     -38.861     119.364
  H       73.511     -43.770     118.966
  H       73.411     -42.433     121.049
  H       73.444     -43.985     124.349
  H       76.058     -43.376     123.506
  H       75.226     -41.461     122.238
  H       73.660     -40.850     124.831
  H       74.184     -47.414     119.111
  H       72.077     -39.715     123.201
  H       73.911     -46.058     118.044
  H       73.631     -38.896     123.493
  P       77.622     -40.672     123.239
  C       77.534     -38.373     122.006
  O       78.150     -39.181     122.995
  O       77.350     -41.238     121.770
  O       78.557     -41.536     124.026
  H       77.481     -42.205     121.742
  H       78.011     -37.415     121.980
  H       76.498     -38.249     122.241
  H       77.629     -38.845     121.050

 6  7  8  9  10  11  12  13  14  15  16  26  30  31  32  33  35 0
 6-311+G(2d,p)
 ****
 37  38 0
 6-311+G(2d,p)
 ****
 1  2  3  4  5  17  18  19  20  21  22  23  24  25 0
 3-21G
 ****
 27  28  29  34  36  39  40  41  42  43  44  45  46 0
 3-21G
 ****


