%nproc=1
%NoSave
%Mem=1900MB
#P OB98/GEN NMR

erre ene a

0 1
  C     1432.611     -82.095    1503.983
  O     1432.098     -80.920    1504.602
  P     1430.631     -80.990    1505.261
  C     1431.269     -81.598    1507.746
  O     1430.755     -82.021    1506.495
  C     1430.155     -81.594    1508.796
  O     1429.433     -82.817    1508.767
  C     1430.645     -81.408    1510.243
  O     1431.007     -80.075    1510.538
  C     1429.440     -81.938    1511.015
  O     1428.420     -80.923    1511.114
  C     1428.959     -83.086    1510.116
  N     1429.359     -84.407    1510.572
  C     1428.445     -85.090    1511.370
  O     1427.323     -84.618    1511.678
  N     1428.838     -86.328    1511.828
  C     1430.082     -86.898    1511.632
  O     1430.370     -87.970    1512.097
  C     1430.998     -86.107    1510.818
  C     1430.638     -84.927    1510.336
  O     1429.832     -81.803    1504.136
  O     1430.084     -79.645    1505.602
  H     1430.418     -82.387    1503.601
  H     1427.719     -81.262    1511.703
  H     1428.188     -86.833    1512.385
  H     1431.992     -86.524    1510.616
  H     1431.305     -84.339    1509.751
  H     1427.841     -83.086    1510.039
  H     1429.688     -82.246    1512.031
  H     1431.520     -82.102    1510.428
  H     1429.440     -80.767    1508.555
  H     1431.693     -80.574    1507.664
  H     1432.060     -82.285    1508.060
  P     1432.439     -79.870    1511.246
  C     1433.510     -78.875    1509.073
  O     1433.542     -79.858    1510.042
  O     1432.624     -81.261    1512.007
  O     1432.461     -78.639    1512.134
  H     1432.365     -82.019    1511.457
  H     1434.500     -78.846    1508.596
  H     1433.272     -77.896    1509.489
  H     1432.768     -79.125    1508.295
  H     1433.588     -81.896    1503.594
  H     1431.962     -82.390    1503.185
  H     1432.669     -82.882    1504.705

 3  4  5  6  7  8  9  10  11  12  13  24  28  29  30  31  32 0
 6-311+G(2d,p)
 ****
 33  34 0
 6-311+G(2d,p)
 ****
 1  2  14  15  16  17  18  19  20  21  22  23  25  26  27 0
 3-21G
 ****
 35  36  37  38  39  40  41  42  43  44  45 0
 3-21G
 ****


