%nproc=1
%NoSave
%Mem=1900MB
#P OB98/GEN NMR

erre ene a

0 1
  C      -36.974      -1.679      55.748
  O      -36.709      -1.549      54.368
  H      -37.266      -2.714      55.953
  H      -37.800      -1.024      56.032
  H      -36.087      -1.441      56.344
  P      -35.995      -0.217      53.834
  C      -33.427      -0.470      53.727
  O      -34.667      -0.700      53.071
  C      -32.276      -1.010      52.877
  O      -32.374      -2.468      52.846
  C      -32.300      -0.507      51.418
  O      -30.950      -0.366      50.961
  C      -32.967      -1.670      50.711
  O      -32.714      -1.660      49.328
  C      -32.365      -2.857      51.459
  N      -33.124      -4.083      51.218
  C      -33.005      -4.657      49.958
  O      -32.316      -4.185      49.055
  N      -33.772      -5.768      49.731
  C      -34.705      -6.282      50.582
  O      -35.419      -7.231      50.300
  C      -34.826      -5.600      51.882
  C      -34.038      -4.552      52.141
  O      -35.775       0.857      54.847
  O      -36.920       0.271      52.621
  H      -31.766      -1.488      49.165
  H      -36.775       1.220      52.443
  H      -33.689      -6.202      48.824
  H      -35.567      -5.971      52.579
  H      -34.111      -4.016      53.082
  H      -31.322      -3.016      51.164
  H      -34.054      -1.622      50.852
  H      -32.836       0.435      51.298
  H      -31.323      -0.766      53.364
  H      -33.450      -0.985      54.695
  H      -33.298       0.604      53.897
  P      -30.367       1.044      50.461
  C      -30.142       2.501      52.563
  O      -29.449       1.712      51.602
  O      -31.398       1.966      49.892
  O      -29.308       0.650      49.321
  H      -29.437       1.230      48.548
  H      -29.444       2.896      53.271
  H      -30.861       1.893      53.072
  H      -30.643       3.307      52.069

 6  7  8  9  10  11  12  13  14  15  16  26  31  32  33  34  35 0
 6-311+G(2d,p)
 ****
 36  37 0
 6-311+G(2d,p)
 ****
 1  2  3  4  5  17  18  19  20  21  22  23  24  25 0
 3-21G
 ****
 27  28  29  30  38  39  40  41  42  43  44  45 0
 3-21G
 ****


