%nproc=1
%NoSave
%Mem=1900MB
#P OB98/GEN NMR

erre ene a

0 1
  C      -70.352     218.352    -323.631
  O      -70.582     219.742    -323.488
  H      -70.593     218.059    -324.658
  H      -70.990     217.794    -322.942
  H      -69.297     218.120    -323.435
  P      -70.243     220.378    -322.053
  C      -67.853     221.311    -322.541
  O      -69.232     221.596    -322.336
  C      -67.114     222.576    -322.987
  O      -67.718     223.055    -324.229
  C      -67.206     223.734    -321.975
  O      -66.007     224.532    -322.091
  C      -68.385     224.528    -322.511
  O      -68.408     225.822    -321.956
  C      -68.108     224.424    -324.012
  N      -71.076     228.270    -325.578
  C      -69.946     228.247    -324.832
  N      -69.210     227.179    -324.465
  C      -69.729     226.047    -324.975
  C      -70.874     225.912    -325.747
  C      -71.568     227.097    -326.048
  N      -72.730     227.124    -326.786
  N      -71.100     224.579    -326.054
  C      -70.109     223.923    -325.480
  N      -69.255     224.767    -324.817
  O      -69.314     219.265    -321.371
  O      -71.423     220.726    -321.206
  H      -67.630     226.344    -322.245
  H      -69.867     218.657    -320.836
  H      -69.588     229.214    -324.481
  H      -69.957     222.850    -325.500
  H      -67.276     225.072    -324.321
  H      -69.335     224.039    -322.249
  H      -67.319     223.400    -320.939
  H      -66.068     222.330    -323.220
  H      -67.765     220.536    -323.309
  H      -67.415     220.949    -321.604
  H      -73.182     228.012    -326.928
  H      -73.126     226.256    -327.111
  P      -64.650     224.016    -321.396
  C      -63.134     222.266    -322.607
  O      -63.566     223.618    -322.513
  O      -65.097     222.579    -320.828
  O      -64.128     224.869    -320.282
  H      -64.778     222.479    -319.908
  H      -62.417     222.175    -323.396
  H      -63.974     221.637    -322.814
  H      -62.686     221.970    -321.682

 6  7  8  9  10  11  12  13  14  15  25  28  32  33  34  35 0
 6-311+G(2d,p)
 ****
 36  37  40 0
 6-311+G(2d,p)
 ****
 1  2  3  4  5  16  17  18  19  20  21  22  23  24 0
 3-21G
 ****
 26  27  29  30  31  38  39 41  42  43  44  45  46  47  48 0
 3-21G
 ****


