%nproc=1
%NoSave
%Mem=1900MB
#P OB98/GEN NMR

erre ene a

0 1
  C     -273.762     413.282    -407.105
  O     -274.221     414.420    -406.393
  P     -273.379     415.027    -405.170
  C     -273.721     417.114    -403.703
  O     -273.950     416.515    -404.977
  C     -274.836     418.108    -403.383
  O     -274.820     419.153    -404.390
  C     -276.258     417.545    -403.403
  O     -276.662     416.918    -402.195
  C     -277.064     418.827    -403.602
  O     -277.176     419.525    -402.347
  C     -276.182     419.617    -404.574
  N     -279.461     421.072    -408.225
  C     -279.299     421.473    -406.943
  N     -278.418     421.022    -406.028
  C     -277.614     420.089    -406.566
  C     -277.647     419.583    -407.858
  C     -278.632     420.120    -408.711
  N     -278.775     419.729    -410.029
  N     -276.672     418.622    -408.033
  C     -276.051     418.557    -406.876
  N     -276.575     419.429    -405.958
  O     -271.901     414.915    -405.319
  O     -273.937     414.258    -403.885
  H     -277.527     418.885    -401.696
  H     -273.314     414.361    -403.139
  H     -279.978     422.249    -406.604
  H     -275.228     417.902    -406.652
  H     -276.189     420.693    -404.364
  H     -278.083     418.639    -403.956
  H     -276.413     416.886    -404.267
  H     -274.616     418.574    -402.412
  H     -272.764     417.646    -403.740
  H     -279.417     420.258    -410.597
  H     -278.056     419.145    -410.435
  H     -273.651     416.336    -402.940
  P     -278.001     416.025    -402.247
  C     -279.064     414.324    -400.556
  O     -277.933     415.072    -400.959
  O     -278.234     415.333    -403.545
  O     -279.147     417.072    -401.861
  H     -279.112     417.408    -400.945
  H     -278.761     413.628    -399.772
  H     -279.469     413.748    -401.391
  H     -279.826     414.995    -400.157
  H     -274.462     413.038    -407.877
  H     -273.669     412.454    -406.433
  H     -272.809     413.495    -407.542

 3  4  5  6  7  8  9  10  11  12  22  25  29  30  31  32 0
 6-311+G(2d,p)
 ****
 33  36  37 0
 6-311+G(2d,p)
 ****
 1  2  13  14  15  16  17  18  19  20  21  23  24  26 0
 3-21G
 ****
 27  28  34  35  38  39  40  41  42  43  44  45  46  47  48 0
 3-21G
 ****


