%nproc=1
%NoSave
%Mem=1900MB
#P OB98/GEN NMR

erre ene a

0 1
  C      -78.123     585.124    -276.271
  O      -77.516     584.559    -277.418
  H      -78.768     584.373    -275.812
  H      -78.725     585.989    -276.552
  H      -77.357     585.423    -275.547
  P      -76.501     585.500    -278.232
  C      -74.381     584.335    -277.276
  O      -75.157     584.652    -278.429
  C      -73.393     583.220    -277.617
  O      -74.114     582.018    -277.969
  C      -72.504     583.529    -278.812
  O      -71.436     584.400    -278.485
  C      -72.051     582.128    -279.207
  O      -70.938     581.697    -278.415
  C      -73.286     581.278    -278.898
  N      -75.299     577.460    -281.626
  C      -74.673     577.487    -280.428
  N      -74.177     578.547    -279.761
  C      -74.406     579.682    -280.446
  C      -75.034     579.816    -281.671
  C      -75.496     578.635    -282.274
  N      -76.114     578.610    -283.504
  N      -75.046     581.140    -282.068
  C      -74.443     581.793    -281.096
  N      -74.043     580.956    -280.092
  O      -76.097     586.611    -277.153
  O      -77.061     586.109    -279.477
  H      -70.826     580.746    -278.610
  H      -76.614     587.424    -277.314
  H      -74.548     576.514    -279.947
  H      -74.265     582.863    -281.076
  H      -73.025     580.330    -278.414
  H      -71.749     582.099    -280.254
  H      -73.107     583.944    -279.631
  H      -72.786     583.008    -276.724
  H      -75.042     583.998    -276.473
  H      -73.851     585.234    -276.950
  H      -76.361     577.721    -283.903
  H      -76.163     579.466    -284.042
  P      -70.846     585.320    -279.655
  C      -71.702     587.542    -278.594
  O      -70.595     586.777    -279.038
  O      -72.087     585.538    -280.641
  O      -69.667     584.741    -280.368
  H      -71.778     585.571    -281.567
  H      -71.357     588.481    -278.214
  H      -72.215     587.011    -277.820
  H      -72.370     587.712    -279.413

 6  7  8  9  10  11  12  13  14  15  25  28  32  33  34  35 0
 6-311+G(2d,p)
 ****
 36  37  40 0
 6-311+G(2d,p)
 ****
 1  2  3  4  5  16  17  18  19  20  21  22  23  24 0
 3-21G
 ****
 26  27  29  30  31  38  39 41  42  43  44  45  46  47  48 0
 3-21G
 ****


