%nproc=1
%NoSave
%Mem=1900MB
#P OB98/GEN NMR

erre ene a

0 1
  C       45.967    -249.575      19.254
  O       47.040    -249.468      18.338
  H       45.177    -250.176      18.799
  H       45.571    -248.582      19.483
  H       46.301    -250.065      20.173
  P       48.316    -248.630      18.829
  C       49.993    -249.005      20.788
  O       49.113    -249.587      19.839
  C       50.484    -250.065      21.782
  O       49.325    -250.690      22.409
  C       51.299    -251.196      21.133
  O       52.222    -251.695      22.115
  C       50.224    -252.238      20.867
  O       50.797    -253.491      20.570
  C       49.425    -252.110      22.161
  N       46.474    -255.950      23.799
  C       47.739    -255.594      24.109
  N       48.455    -254.551      23.641
  C       47.724    -253.822      22.779
  C       46.420    -254.056      22.373
  C       45.785    -255.184      22.920
  N       44.499    -255.555      22.600
  N       46.010    -253.090      21.471
  C       47.049    -252.289      21.338
  N       48.108    -252.697      22.102
  O       47.679    -247.515      19.782
  O       49.146    -248.031      17.744
  H       51.360    -253.435      19.768
  H       47.535    -246.690      19.281
  H       48.245    -256.233      24.826
  H       47.091    -251.415      20.701
  H       49.951    -252.559      23.011
  H       49.615    -251.958      20.002
  H       51.849    -250.879      20.243
  H       51.049    -249.573      22.581
  H       49.453    -248.217      21.324
  H       50.851    -248.566      20.271
  H       44.122    -256.386      23.025
  H       43.981    -255.002      21.933
  P       53.718    -251.110      22.152
  C       54.804    -248.871      22.963
  O       53.733    -249.797      23.074
  O       53.865    -250.482      20.683
  O       54.799    -252.106      22.412
  H       54.804    -250.494      20.416
  H       54.650    -248.063      23.648
  H       54.843    -248.489      21.964
  H       55.726    -249.363      23.194

 6  7  8  9  10  11  12  13  14  15  25  28  32  33  34  35 0
 6-311+G(2d,p)
 ****
 36  37  40 0
 6-311+G(2d,p)
 ****
 1  2  3  4  5  16  17  18  19  20  21  22  23  24 0
 3-21G
 ****
 26  27  29  30  31  38  39 41  42  43  44  45  46  47  48 0
 3-21G
 ****


