%nproc=1
%NoSave
%Mem=1900MB
#P OB98/GEN NMR

erre ene a

0 1
  C      -67.043      72.649     547.304
  O      -68.417      72.777     547.627
  H      -66.831      71.600     547.079
  H      -66.415      72.956     548.146
  H      -66.803      73.255     546.426
  P      -68.944      74.198     548.148
  C      -70.856      73.141     549.535
  O      -69.654      73.904     549.553
  C      -71.402      72.991     550.952
  O      -70.657      71.990     551.673
  C      -71.290      74.267     551.777
  O      -72.280      75.202     551.394
  C      -71.417      73.712     553.183
  O      -72.788      73.460     553.519
  C      -70.624      72.388     553.064
  N      -69.251      72.509     553.542
  C      -69.097      72.733     554.914
  O      -70.080      72.814     555.648
  N      -67.825      72.884     555.413
  C      -66.802      72.800     554.623
  N      -65.572      72.959     555.178
  C      -66.920      72.551     553.171
  C      -68.161      72.424     552.706
  O      -69.772      75.002     547.193
  O      -67.602      74.963     548.571
  H      -73.230      74.332     553.502
  H      -67.240      75.463     547.814
  H      -66.039      72.484     552.551
  H      -68.338      72.234     551.649
  H      -71.118      71.592     553.635
  H      -71.015      74.401     553.922
  H      -70.286      74.696     551.669
  H      -72.446      72.654     550.887
  H      -65.538      73.138     556.179
  H      -70.610      72.158     549.122
  H      -64.704      72.827     554.679
  H      -71.606      73.612     548.890
  P      -71.863      76.621     550.770
  C      -74.131      77.498     551.630
  O      -72.724      77.712     551.580
  O      -71.948      76.711     549.282
  O      -70.379      76.844     551.336
  H      -69.726      76.265     550.872
  H      -74.591      78.283     552.192
  H      -74.332      76.558     552.100
  H      -74.526      77.492     550.636

 6  7  8  9  10  11  12  13  14  15  16  26  30  31  32  33  35 0
 6-311+G(2d,p)
 ****
 37  38 0
 6-311+G(2d,p)
 ****
 1  2  3  4  5  17  18  19  20  21  22  23  24  25 0
 3-21G
 ****
 27  28  29  34  36  39  40  41  42  43  44  45  46 0
 3-21G
 ****


