%nproc=1
%NoSave
%Mem=1900MB
#P OB98/GEN NMR

erre ene a

0 1
  C       86.664    -112.891     -58.493
  O       85.928    -112.904     -59.723
  P       85.437    -111.491     -60.300
  C       84.348    -111.228     -62.658
  O       84.241    -111.753     -61.338
  C       83.463    -112.025     -63.619
  O       83.843    -113.416     -63.636
  C       81.994    -112.017     -63.231
  O       81.389    -110.796     -63.601
  C       81.459    -113.231     -63.989
  O       81.000    -112.870     -65.304
  C       82.689    -114.164     -64.066
  N       82.521    -115.380     -63.286
  C       82.377    -116.560     -64.018
  O       82.378    -116.537     -65.250
  N       82.216    -117.741     -63.335
  C       82.169    -117.732     -62.032
  N       82.002    -118.933     -61.411
  C       82.289    -116.500     -61.225
  C       82.459    -115.375     -61.910
  O       86.647    -111.035     -61.241
  O       85.139    -110.476     -59.242
  H       80.455    -112.074     -65.181
  H       86.730    -110.064     -61.235
  H       82.234    -116.541     -60.144
  H       82.551    -114.419     -61.397
  H       82.875    -114.456     -65.109
  H       80.599    -113.676     -63.470
  H       81.887    -112.183     -62.145
  H       83.586    -111.615     -64.632
  H       81.923    -119.754     -61.994
  H       85.388    -111.257     -62.993
  H       81.947    -119.040     -60.404
  H       84.053    -110.165     -62.638
  P       81.151    -109.700     -62.465
  C       80.188    -107.315     -62.520
  O       80.189    -108.598     -63.129
  O       82.561    -108.930     -62.434
  O       80.759    -110.190     -61.105
  H       82.582    -108.288     -61.699
  H       79.660    -106.615     -63.189
  H       81.208    -106.966     -62.378
  H       79.663    -107.353     -61.565
  H       86.928    -113.893     -58.225
  H       86.060    -112.462     -57.721
  H       87.553    -112.309     -58.616

 3  4  5  6  7  8  9  10  11  12  13  21  23  27  28  29  30  32 0
 6-311+G(2d,p)
 ****
 34  35 0
 6-311+G(2d,p)
 ****
 1  2  14  15  16  17  18  19  20  22  24  25  26 0
 3-21G
 ****
 31  33  36  37  38  39  40  41  42  43  44  45  46 0
 3-21G
 ****


