%nproc=1
%NoSave
%Mem=1900MB
#P OB98/GEN NMR

erre ene a

0 1
  C     -892.890     260.397     -99.978
  O     -893.380     261.720     -99.894
  H     -891.860     260.383     -99.584
  H     -892.860     260.065    -101.022
  H     -893.500     259.716     -99.384
  P     -894.850     262.023    -100.460
  C     -895.070     263.341     -98.247
  O     -895.410     263.281     -99.626
  C     -894.960     264.802     -97.791
  O     -893.740     265.346     -98.372
  C     -896.140     265.659     -98.262
  O     -896.780     266.386     -97.207
  C     -895.550     266.480     -99.418
  O     -896.190     267.715     -99.660
  C     -894.070     266.587     -99.027
  N     -893.180     266.797    -100.165
  C     -892.910     268.124    -100.530
  O     -893.360     269.122     -99.941
  N     -892.100     268.299    -101.611
  C     -891.540     267.304    -102.357
  O     -890.800     267.507    -103.314
  C     -891.870     265.921    -101.955
  C     -892.670     265.742    -100.898
  O     -895.780     260.861    -100.545
  O     -894.570     262.656    -101.916
  H     -895.750     268.128    -100.411
  H     -894.750     261.985    -102.597
  H     -891.880     269.243    -101.873
  H     -891.450     265.122    -102.530
  H     -892.930     264.748    -100.560
  H     -893.910     267.396     -98.330
  H     -895.640     265.879    -100.340
  H     -896.940     265.036     -98.655
  H     -894.850     264.822     -96.702
  H     -894.110     262.829     -98.115
  H     -895.850     262.833     -97.666
  P     -898.180     265.994     -96.552
  C     -897.330     267.438     -94.541
  O     -898.430     266.978     -95.303
  O     -898.410     264.529     -96.327
  O     -899.260     266.504     -97.658
  H     -900.000     265.885     -97.612
  H     -897.681     268.077     -93.758
  H     -896.661     267.984     -95.173
  H     -896.816     266.601     -94.116

 6  7  8  9  10  11  12  13  14  15  16  26  31  32  33  34  35 0
 6-311+G(2d,p)
 ****
 36  37 0
 6-311+G(2d,p)
 ****
 1  2  3  4  5  17  18  19  20  21  22  23  24  25 0
 3-21G
 ****
 27  28  29  30  38  39  40  41  42  43  44  45 0
 3-21G
 ****


