%nproc=1
%NoSave
%Mem=1900MB
#P OB98/GEN NMR

erre ene a

0 1
  C      179.606      10.958    -228.731
  O      180.237      10.285    -229.806
  P      181.038       8.937    -229.461
  C      179.095       7.298    -230.022
  O      179.948       7.846    -229.026
  C      179.129       5.772    -229.963
  O      180.409       5.287    -230.412
  C      178.940       5.188    -228.570
  O      177.582       5.249    -228.167
  C      179.479       3.779    -228.782
  O      178.492       2.965    -229.435
  C      180.666       4.031    -229.729
  N      184.360       1.363    -227.395
  C      183.194       0.982    -227.962
  N      182.252       1.754    -228.544
  C      182.613       3.046    -228.513
  C      183.758       3.585    -227.951
  C      184.662       2.681    -227.373
  N      185.848       3.076    -226.792
  N      183.772       4.958    -228.089
  C      182.660       5.241    -228.735
  N      181.933       4.119    -229.026
  O      181.776       9.291    -228.089
  O      182.002       8.491    -230.517
  H      178.938       2.144    -229.722
  H      182.645       8.850    -228.035
  H      182.991      -0.085    -227.949
  H      182.343       6.236    -229.016
  H      180.767       3.253    -230.495
  H      179.754       3.277    -227.848
  H      179.564       5.723    -227.843
  H      178.358       5.390    -230.644
  H      179.433       7.620    -231.012
  H      186.365       2.382    -226.271
  H      186.002       4.065    -226.650
  H      178.080       7.674    -229.865
  P      177.269       5.088    -226.602
  C      177.021       7.643    -226.519
  O      177.682       6.512    -225.982
  O      178.464       4.140    -226.129
  O      175.893       4.612    -226.282
  H      179.328       4.453    -226.450
  H      177.353       8.531    -225.976
  H      175.938       7.541    -226.406
  H      177.277       7.759    -227.576
  H      179.112      11.833    -229.099
  H      180.341      11.241    -228.007
  H      178.888      10.308    -228.276

 3  4  5  6  7  8  9  10  11  12  22  25  29  30  31  32 0
 6-311+G(2d,p)
 ****
 33  36  37 0
 6-311+G(2d,p)
 ****
 1  2  13  14  15  16  17  18  19  20  21  23  24  26 0
 3-21G
 ****
 27  28  34  35  38  39  40  41  42  43  44  45  46  47  48 0
 3-21G
 ****


