%nproc=1
%NoSave
%Mem=1900MB
#P OB98/GEN NMR

erre ene a

0 1
  C     -788.172    -247.632     238.658
  O     -787.246    -247.644     239.746
  P     -785.803    -248.297     239.483
  C     -786.506    -250.599     240.541
  O     -785.644    -249.451     240.576
  C     -785.753    -251.837     241.017
  O     -784.737    -252.231     240.031
  C     -784.988    -251.648     242.328
  O     -785.877    -251.635     243.423
  C     -784.041    -252.837     242.276
  O     -784.698    -254.029     242.696
  C     -783.686    -252.916     240.772
  N     -782.373    -252.364     240.454
  C     -781.309    -252.921     241.176
  O     -781.448    -253.775     242.039
  N     -780.069    -252.416     240.882
  C     -779.805    -251.423     239.968
  O     -778.667    -251.027     239.731
  C     -780.979    -250.853     239.272
  C     -782.189    -251.337     239.550
  O     -784.842    -247.126     239.995
  O     -785.606    -248.713     238.067
  H     -785.194    -246.650     240.753
  H     -785.244    -253.790     243.484
  H     -779.288    -252.800     241.373
  H     -780.797    -250.059     238.576
  H     -783.051    -250.937     239.054
  H     -783.723    -253.957     240.432
  H     -783.172    -252.701     242.936
  H     -784.425    -250.709     242.295
  H     -786.464    -252.658     241.102
  H     -786.860    -250.749     239.519
  H     -787.369    -250.407     241.172
  P     -786.519    -250.225     243.835
  C     -785.138    -249.990     246.042
  O     -786.401    -250.111     245.440
  O     -788.073    -250.492     243.563
  O     -785.958    -249.067     243.079
  H     -788.375    -251.359     243.911
  H     -785.284    -249.591     247.053
  H     -784.488    -249.303     245.491
  H     -784.660    -250.968     246.132
  H     -789.085    -247.171     238.972
  H     -788.368    -248.636     238.346
  H     -787.756    -247.080     237.842

 3  4  5  6  7  8  9  10  11  12  13  24  28  29  30  31  32 0
 6-311+G(2d,p)
 ****
 33  34 0
 6-311+G(2d,p)
 ****
 1  2  14  15  16  17  18  19  20  21  22  23  25  26  27 0
 3-21G
 ****
 35  36  37  38  39  40  41  42  43  44  45 0
 3-21G
 ****


