%nproc=1
%NoSave
%Mem=1900MB
#P OB98/GEN NMR

erre ene a

0 1
  C      549.818     -85.094    -117.672
  O      549.763     -86.520    -117.615
  P      550.627     -87.411    -118.632
  C      551.554     -89.340    -117.230
  O      550.558     -88.950    -118.171
  C      551.173     -89.030    -115.775
  O      549.916     -89.658    -115.419
  C      552.207     -89.468    -114.733
  O      552.138     -88.500    -113.680
  C      551.653     -90.806    -114.273
  O      552.184     -91.218    -113.022
  C      550.147     -90.518    -114.292
  N      549.347     -91.740    -114.367
  C      548.851     -92.246    -113.169
  O      549.136     -91.706    -112.100
  N      548.083     -93.383    -113.198
  C      547.909     -94.013    -114.319
  N      547.161     -95.150    -114.282
  C      548.490     -93.561    -115.599
  C      549.181     -92.423    -115.548
  O      552.008     -86.903    -118.891
  O      549.761     -87.397    -119.984
  H      551.825     -92.106    -112.811
  H      550.361     -87.475    -120.748
  H      548.344     -94.132    -116.505
  H      549.644     -92.004    -116.435
  H      549.848     -89.968    -113.389
  H      551.900     -91.582    -115.011
  H      553.219     -89.544    -115.128
  H      551.017     -87.943    -115.706
  H      546.804     -95.441    -113.380
  H      552.485     -88.821    -117.473
  H      547.062     -95.770    -115.071
  H      551.745     -90.413    -117.342
  P      553.396     -87.597    -113.275
  C      552.177     -85.457    -112.595
  O      552.893     -86.586    -112.138
  O      554.099     -86.949    -114.420
  O      554.375     -88.590    -112.479
  H      555.267     -88.199    -112.443
  H      551.710     -84.962    -111.739
  H      551.398     -85.745    -113.304
  H      552.862     -84.753    -113.079
  H      549.178     -84.682    -116.920
  H      549.494     -84.763    -118.637
  H      550.823     -84.769    -117.502

 3  4  5  6  7  8  9  10  11  12  13  23  27  28  29  30  32 0
 6-311+G(2d,p)
 ****
 34  35 0
 6-311+G(2d,p)
 ****
 1  2  14  15  16  17  18  19  20  21  22  24  25  26 0
 3-21G
 ****
 31  33  36  37  38  39  40  41  42  43  44  45  46 0
 3-21G
 ****


