%nproc=1
%NoSave
%Mem=1900MB
#P OB98/GEN NMR

erre ene a

0 1
  C      234.435     330.077     -45.833
  O      233.690     330.387     -44.672
  H      233.982     330.586     -46.687
  H      234.418     328.999     -46.016
  H      235.465     330.421     -45.722
  P      234.155     329.688     -43.306
  C      232.009     328.238     -43.099
  O      232.817     329.259     -42.532
  C      230.687     328.148     -42.343
  O      230.909     327.584     -41.032
  C      230.022     329.495     -42.097
  O      229.352     329.982     -43.246
  C      229.072     329.143     -40.965
  O      227.849     328.577     -41.460
  C      229.879     328.101     -40.163
  N      230.432     328.662     -38.932
  C      229.525     328.848     -37.894
  O      228.331     328.565     -37.984
  N      230.029     329.406     -36.753
  C      231.315     329.827     -36.566
  O      231.687     330.387     -35.544
  C      232.234     329.591     -37.693
  C      231.756     329.038     -38.811
  O      234.717     330.915     -42.445
  O      235.164     328.600     -43.462
  H      235.691     330.912     -42.459
  H      227.373     328.228     -40.682
  H      229.382     329.558     -35.992
  H      233.263     329.905     -37.576
  H      232.408     328.873     -39.665
  H      229.244     327.253     -39.890
  H      228.797     330.023     -40.382
  H      230.757     330.219     -41.730
  H      230.014     327.480     -42.897
  H      232.530     327.278     -43.024
  H      231.839     328.464     -44.157
  P      229.740     331.431     -43.805
  C      227.223     332.082     -44.190
  O      228.521     331.905     -44.733
  O      230.898     331.063     -44.844
  O      230.132     332.400     -42.742
  H      230.743     330.218     -45.304
  H      226.553     332.399     -44.962
  H      227.257     332.825     -43.420
  H      226.880     331.156     -43.778

 6  7  8  9  10  11  12  13  14  15  16  27  31  32  33  34  35 0
 6-311+G(2d,p)
 ****
 36  37 0
 6-311+G(2d,p)
 ****
 1  2  3  4  5  17  18  19  20  21  22  23  24  25 0
 3-21G
 ****
 26  28  29  30  38  39  40  41  42  43  44  45 0
 3-21G
 ****


