%nproc=1
%NoSave
%Mem=1900MB
#P OB98/GEN NMR

erre ene a

0 1
  C     -136.825      10.738     -71.392
  O     -136.609      10.605     -69.982
  P     -135.142      10.397     -69.366
  C     -135.488       8.264     -67.978
  O     -135.230       9.663     -67.936
  C     -136.796       7.869     -67.274
  O     -136.808       8.336     -65.897
  C     -138.074       8.408     -67.931
  O     -139.088       7.436     -67.676
  C     -138.332       9.675     -67.133
  O     -139.668      10.149     -67.240
  C     -137.944       9.204     -65.734
  N     -138.557      11.084     -61.009
  C     -138.831       9.872     -61.535
  N     -138.608       9.434     -62.789
  C     -137.996      10.377     -63.525
  C     -137.643      11.656     -63.122
  C     -137.960      12.008     -61.798
  N     -137.725      13.258     -61.270
  N     -137.060      12.355     -64.162
  C     -137.071      11.512     -65.176
  N     -137.624      10.303     -64.841
  O     -134.298      11.633     -69.362
  O     -134.474       9.286     -70.307
  H     -140.259       9.491     -66.827
  H     -133.567       9.565     -70.538
  H     -139.303       9.162     -60.860
  H     -136.717      11.730     -66.176
  H     -138.748       8.619     -65.273
  H     -137.667      10.470     -67.492
  H     -137.966       8.594     -69.002
  H     -136.827       6.773     -67.229
  H     -134.650       7.740     -67.503
  H     -138.072      13.444     -60.341
  H     -137.400      13.995     -61.877
  H     -135.528       7.945     -69.027
  P     -139.303       6.170     -68.634
  C     -141.840       6.357     -68.354
  O     -140.706       5.516     -68.226
  O     -138.156       5.216     -68.677
  O     -139.595       6.801     -70.078
  H     -139.439       6.128     -70.766
  H     -141.864       7.067     -67.522
  H     -142.744       5.741     -68.325
  H     -141.815       6.905     -69.302
  H     -137.870      10.867     -71.582
  H     -136.478       9.857     -71.891
  H     -136.289      11.589     -71.756

 3  4  5  6  7  8  9  10  11  12  22  25  29  30  31  32 0
 6-311+G(2d,p)
 ****
 33  36  37 0
 6-311+G(2d,p)
 ****
 1  2  13  14  15  16  17  18  19  20  21  23  24  26 0
 3-21G
 ****
 27  28  34  35  38  39  40  41  42  43  44  45  46  47  48 0
 3-21G
 ****


