%nproc=1
%NoSave
%Mem=1900MB
#P OB98/GEN NMR

erre ene a

0 1
  C      -69.166     -52.731    -132.778
  O      -68.963     -53.522    -133.956
  P      -70.163     -53.520    -135.028
  C      -69.477     -51.771    -136.823
  O      -69.545     -53.146    -136.465
  C      -68.593     -51.544    -138.053
  O      -67.212     -51.807    -137.701
  C      -68.928     -52.434    -139.257
  O      -68.738     -51.669    -140.457
  C      -67.843     -53.495    -139.221
  O      -67.641     -54.103    -140.494
  C      -66.664     -52.668    -138.714
  N      -62.976     -55.963    -139.775
  C      -63.792     -55.248    -140.628
  N      -63.615     -55.458    -141.951
  N      -64.701     -54.400    -140.223
  C      -64.746     -54.266    -138.874
  C      -63.984     -54.910    -137.924
  C      -63.011     -55.877    -138.389
  O      -62.294     -56.581    -137.681
  N      -64.322     -54.511    -136.654
  C      -65.290     -53.635    -136.835
  N      -65.588     -53.458    -138.163
  O      -71.012     -52.226    -134.620
  O      -71.001     -54.755    -134.996
  H      -68.500     -54.471    -140.776
  H      -71.939     -52.479    -134.443
  H      -62.307     -56.618    -140.141
  H      -65.823     -53.121    -136.048
  H      -66.250     -52.034    -139.508
  H      -68.126     -54.279    -138.507
  H      -62.891     -56.047    -142.334
  H      -69.936     -52.860    -139.240
  H      -64.172     -54.909    -142.593
  H      -68.661     -50.486    -138.332
  H      -69.076     -51.197    -135.983
  H      -70.494     -51.411    -137.018
  P      -70.034     -50.919    -141.036
  C      -71.113     -49.722    -138.993
  O      -70.246     -49.631    -140.106
  O      -71.239     -51.888    -140.622
  O      -69.988     -50.665    -142.507
  H      -71.983     -51.787    -141.245
  H      -71.403     -50.755    -138.779
  H      -72.014     -49.137    -139.196
  H      -70.609     -49.308    -138.116
  H      -68.308     -52.809    -132.144
  H      -70.030     -53.085    -132.255
  H      -69.312     -51.708    -133.056

 3  4  5  6  7  8  9  10  11  12  23  26  30  31  33  0
 6-311+G(2d,p)
 ****
 35  36  37  38 0
 6-311+G(2d,p)
 ****
 1  2  13  14  15  16  17  18  19  20  21  22  24  25  27  28  29 0
 3-21G
 ****
 32  34  39  40  41  42  43  44  45  46  47  48  49 0
 3-21G
 ****


