%nproc=1
%NoSave
%Mem=1900MB
#P OB98/GEN NMR

erre ene a

0 1
  C     -223.472     282.524     470.234
  O     -222.218     281.931     469.967
  H     -223.453     283.560     469.890
  H     -223.653     282.517     471.313
  H     -224.275     281.992     469.718
  P     -222.134     280.331     470.019
  C     -221.341     280.179     472.485
  O     -222.375     279.907     471.551
  C     -221.398     279.185     473.647
  O     -222.674     279.350     474.338
  C     -221.285     277.712     473.219
  O     -220.537     276.998     474.215
  C     -222.724     277.234     473.277
  O     -222.819     275.824     473.438
  C     -223.240     278.034     474.467
  N     -227.248     275.803     476.501
  C     -225.910     275.688     476.805
  N     -225.570     274.794     477.762
  N     -224.974     276.388     476.219
  C     -225.449     277.258     475.296
  C     -226.749     277.463     474.899
  C     -227.776     276.668     475.545
  O     -228.978     276.708     475.300
  N     -226.814     278.389     473.890
  C     -225.556     278.724     473.664
  N     -224.692     278.064     474.492
  O     -220.575     280.053     469.791
  O     -222.983     279.613     469.020
  H     -223.686     275.620     473.844
  H     -220.404     279.880     468.845
  H     -227.929     275.229     476.970
  H     -225.219     279.418     472.906
  H     -222.914     277.614     475.428
  H     -223.247     277.515     472.356
  H     -226.235     274.243     478.280
  H     -220.823     277.567     472.238
  H     -224.595     274.733     478.023
  H     -220.610     279.442     474.366
  H     -221.465     281.192     472.879
  H     -220.372     280.115     471.980
  P     -218.999     276.666     473.909
  C     -219.294     274.378     472.702
  O     -218.929     275.746     472.595
  O     -218.605     275.657     475.085
  O     -218.112     277.866     473.896
  H     -217.674     275.796     475.341
  H     -219.194     273.906     471.747
  H     -220.309     274.304     473.032
  H     -218.654     273.892     473.408

 6  7  8  9  10  11  12  13  14  15  26  29  33  34 0
 6-311+G(2d,p)
 ****
 36  38  39  40  41 0
 6-311+G(2d,p)
 ****
 1  2  3  4  5  16  17  18  19  20  21  22  23  24  25 0
 3-21G
 ****
 27  28  30  31  32  35  37  42  43  44  45  46  47 0
 3-21G
 ****
 48  49 0
 3-21G
 ****


