%nproc=1
%NoSave
%Mem=1900MB
#P OB98/GEN NMR

erre ene a

0 1
  C      358.011    -258.624    -907.475
  O      356.696    -258.252    -907.096
  H      358.588    -257.718    -907.684
  H      357.978    -259.240    -908.391
  H      358.496    -259.186    -906.671
  P      355.669    -259.457    -906.812
  C      353.929    -257.895    -905.693
  O      354.207    -258.793    -906.761
  C      352.488    -257.392    -905.782
  O      352.336    -256.417    -906.852
  C      351.451    -258.488    -906.038
  O      351.086    -259.129    -904.830
  C      350.315    -257.685    -906.646
  O      349.546    -257.020    -905.624
  C      351.069    -256.647    -907.511
  N      348.845    -258.334    -911.723
  C      348.313    -258.080    -910.476
  N      347.005    -258.352    -910.311
  N      349.010    -257.626    -909.461
  C      350.329    -257.457    -909.754
  C      350.971    -257.667    -910.946
  C      350.180    -258.106    -912.071
  O      350.571    -258.275    -913.232
  N      352.311    -257.353    -910.862
  C      352.479    -257.007    -909.592
  N      351.299    -257.046    -908.883
  O      355.961    -259.832    -905.284
  O      355.810    -260.647    -907.700
  H      350.091    -256.330    -905.213
  H      355.889    -260.809    -905.184
  H      348.257    -258.649    -912.473
  H      353.415    -256.696    -909.160
  H      350.535    -255.689    -907.552
  H      349.621    -258.323    -907.200
  H      346.491    -258.960    -910.938
  H      351.828    -259.207    -906.784
  H      346.632    -258.251    -909.366
  H      352.263    -256.862    -904.837
  H      354.621    -257.029    -905.771
  H      354.091    -258.391    -904.736
  P      350.608    -260.659    -904.913
  C      351.357    -261.138    -902.470
  O      350.296    -261.165    -903.418
  O      351.961    -261.449    -905.300
  O      349.517    -260.910    -905.910
  H      351.922    -261.713    -906.250
  H      351.003    -261.501    -901.528
  H      351.708    -260.134    -902.357
  H      352.158    -261.759    -902.813

 6  7  8  9  10  11  12  13  14  15  26  29  33  34 0
 6-311+G(2d,p)
 ****
 36  38  39  40  41 0
 6-311+G(2d,p)
 ****
 1  2  3  4  5  16  17  18  19  20  21  22  23  24  25 0
 3-21G
 ****
 27  28  30  31  32  35  37  42  43  44  45  46  47 0
 3-21G
 ****
 48  49 0
 3-21G
 ****


