%nproc=1
%NoSave
%Mem=1900MB
#P OB98/GEN NMR

erre ene a

0 1
  C      156.614     515.224    -899.050
  O      156.962     516.378    -898.270
  P      158.404     516.409    -897.570
  C      159.352     518.363    -899.030
  O      159.003     517.903    -897.730
  C      159.122     519.885    -899.120
  O      157.718     520.202    -899.310
  C      159.574     520.659    -897.890
  O      160.969     520.916    -897.910
  C      158.777     521.945    -898.050
  O      159.472     522.808    -898.990
  C      157.458     521.455    -898.630
  N      153.223     523.352    -896.600
  C      153.980     523.789    -897.640
  N      153.555     524.928    -898.260
  N      155.081     523.207    -898.070
  C      155.383     522.096    -897.390
  C      154.700     521.523    -896.320
  C      153.498     522.200    -895.860
  O      152.787     521.846    -894.920
  N      155.308     520.375    -895.880
  C      156.351     520.240    -896.690
  N      156.440     521.268    -897.610
  O      159.301     515.573    -898.610
  O      158.461     515.821    -896.210
  H      159.279     522.468    -899.890
  H      160.055     515.155    -898.150
  H      152.393     523.831    -896.310
  H      157.053     519.424    -896.640
  H      157.042     522.158    -899.370
  H      158.714     522.514    -897.110
  H      152.707     525.410    -898.010
  H      159.256     520.148    -896.960
  H      154.086     525.273    -899.060
  H      159.684     520.250    -900.000
  H      158.762     517.863    -899.790
  H      160.405     518.114    -899.230
  P      161.651     521.477    -896.560
  C      162.928     519.352    -895.790
  O      163.001     520.645    -896.370
  O      160.683     520.913    -895.420
  O      161.789     522.965    -896.500
  H      160.657     521.538    -894.660
  H      163.914     518.873    -895.890
  H      162.189     518.736    -896.290
  H      162.689     519.435    -894.730
  H      155.630     515.348    -899.451
  H      156.639     514.353    -898.429
  H      157.314     515.111    -899.852

 3  4  5  6  7  8  9  10  11  12  23  26  30  31 0
 6-311+G(2d,p)
 ****
 33  35  36  37  38 0
 6-311+G(2d,p)
 ****
 1  2  13  14  15  16  17  18  19  20  21  22  24  25 0
 3-21G
 ****
 27  28  29  32  34  39  40  41  42  43  44  45  46  47  48  49 0
 3-21G
 ****


