%nproc=1
%NoSave
%Mem=1900MB
#P OB98/GEN NMR

erre ene a

0 1
  C       87.920     923.125    1295.660
  O       87.160     921.938    1295.544
  P       87.142     920.930    1296.809
  C       89.501     919.965    1296.164
  O       88.132     919.728    1296.432
  C       90.296     918.671    1296.363
  O       90.246     918.273    1297.761
  C       89.795     917.486    1295.568
  O       90.159     917.558    1294.207
  C       90.429     916.326    1296.347
  O       91.798     916.167    1295.965
  C       90.349     916.836    1297.796
  N       89.243     916.254    1298.543
  C       89.548     915.668    1299.773
  O       90.689     915.629    1300.223
  N       88.497     915.118    1300.463
  C       87.208     915.035    1300.005
  O       86.313     914.490    1300.658
  C       86.924     915.629    1298.709
  C       87.946     916.214    1298.032
  O       85.657     920.319    1296.646
  O       87.394     921.624    1298.098
  H       85.357     920.330    1295.714
  H       92.178     917.072    1295.928
  H       88.699     914.700    1301.346
  H       85.911     915.589    1298.312
  H       87.770     916.646    1297.050
  H       91.286     916.606    1298.335
  H       89.900     915.368    1296.161
  H       88.699     917.432    1295.651
  H       91.355     918.892    1296.111
  H       89.867     920.733    1296.870
  H       89.608     920.350    1295.154
  P       88.947     917.485    1293.132
  C       88.034     915.082    1293.588
  O       88.786     915.943    1292.756
  O       89.633     918.139    1291.858
  O       87.705     918.178    1293.571
  H       90.561     917.826    1291.718
  H       87.720     914.203    1293.017
  H       87.139     915.572    1293.979
  H       88.656     914.752    1294.424
  H       87.840     923.690    1294.755
  H       88.946     922.876    1295.835
  H       87.550     923.707    1296.478

 3  4  5  6  7  8  9  10  11  12  13  24  28  29  30  31  32 0
 6-311+G(2d,p)
 ****
 33  34 0
 6-311+G(2d,p)
 ****
 1  2  14  15  16  17  18  19  20  21  22  23  25  26  27 0
 3-21G
 ****
 35  36  37  38  39  40  41  42  43  44  45 0
 3-21G
 ****


