%nproc=1
%NoSave
%Mem=1900MB
#P OB98/GEN NMR

erre ene a

0 1
  C     -117.976    -469.272    -245.632
  O     -119.245    -469.853    -245.404
  H     -117.993    -468.772    -246.603
  H     -117.206    -470.043    -245.647
  H     -117.750    -468.534    -244.857
  P     -119.451    -470.625    -244.014
  C     -118.557    -472.963    -244.736
  O     -118.319    -471.772    -243.998
  C     -117.613    -474.079    -244.267
  O     -117.674    -474.180    -242.820
  C     -117.962    -475.449    -244.842
  O     -116.760    -476.113    -245.247
  C     -118.625    -476.184    -243.696
  O     -118.494    -477.601    -243.805
  C     -117.938    -475.548    -242.477
  N     -118.764    -475.646    -241.276
  C     -118.911    -476.920    -240.708
  O     -118.371    -477.894    -241.229
  N     -119.709    -477.066    -239.605
  C     -120.356    -476.038    -239.137
  N     -121.146    -476.252    -238.054
  C     -120.270    -474.690    -239.731
  C     -119.458    -474.567    -240.781
  O     -120.805    -471.444    -244.258
  O     -119.479    -469.760    -242.797
  H     -117.561    -477.836    -243.595
  H     -121.171    -471.800    -243.413
  H     -120.837    -473.872    -239.315
  H     -119.338    -473.609    -241.282
  H     -116.974    -476.041    -242.280
  H     -119.695    -475.951    -243.681
  H     -118.637    -475.392    -245.703
  H     -116.585    -473.790    -244.516
  H     -121.191    -477.191    -237.680
  H     -118.388    -472.763    -245.799
  H     -121.718    -475.537    -237.625
  H     -119.594    -473.275    -244.588
  P     -116.624    -476.435    -246.814
  C     -117.555    -478.837    -247.045
  O     -117.800    -477.454    -247.209
  O     -115.295    -477.319    -246.904
  O     -116.547    -475.207    -247.662
  H     -114.536    -476.776    -247.179
  H     -118.420    -479.391    -247.346
  H     -117.340    -479.042    -246.017
  H     -116.720    -479.125    -247.648

 6  7  8  9  10  11  12  13  14  15  16  26  30  31  32  33  35 0
 6-311+G(2d,p)
 ****
 37  38 0
 6-311+G(2d,p)
 ****
 1  2  3  4  5  17  18  19  20  21  22  23  24  25 0
 3-21G
 ****
 27  28  29  34  36  39  40  41  42  43  44  45  46 0
 3-21G
 ****


