%nproc=1
%NoSave
%Mem=1900MB
#P OB98/GEN NMR

erre ene a

0 1
  C      693.215    -892.150     754.186
  O      692.030    -892.740     753.678
  P      691.084    -891.880     752.672
  C      692.310    -892.530     750.510
  O      691.086    -892.590     751.249
  C      692.265    -893.500     749.348
  O      692.320    -894.880     749.803
  C      691.021    -893.400     748.497
  O      691.019    -892.260     747.674
  C      691.081    -894.740     747.723
  O      692.005    -894.620     746.624
  C      691.691    -895.700     748.786
  N      690.653    -896.570     749.348
  C      690.055    -897.480     748.475
  O      690.368    -897.480     747.263
  N      689.181    -898.410     748.982
  C      688.831    -898.340     750.213
  N      687.943    -899.280     750.672
  C      689.279    -897.290     751.155
  C      690.210    -896.460     750.660
  O      691.339    -890.420     752.656
  O      689.606    -892.200     753.252
  H      689.141    -891.360     753.368
  H      691.890    -895.440     746.080
  H      688.912    -897.240     752.159
  H      690.666    -895.680     751.253
  H      692.480    -896.300     748.335
  H      690.121    -895.050     747.317
  H      690.119    -893.420     749.131
  H      693.164    -893.340     748.717
  H      687.656    -900.000     750.015
  H      693.129    -892.790     751.170
  H      687.862    -899.500     751.676
  H      692.465    -891.520     750.161
  P      689.544    -891.600     747.389
  C      689.872    -889.700     749.134
  O      689.655    -890.040     747.745
  O      688.630    -892.200     748.543
  O      689.031    -891.880     746.038
  H      687.730    -892.390     748.190
  H      690.247    -888.650     749.175
  H      690.601    -890.360     749.607
  H      688.917    -889.740     749.668
  H      693.714    -892.847     754.826
  H      692.966    -891.270     754.742
  H      693.860    -891.888     753.373

 3  4  5  6  7  8  9  10  11  12  13  24  27  28  29  30  32 0
 6-311+G(2d,p)
 ****
 34  35 0
 6-311+G(2d,p)
 ****
 1  2  14  15  16  17  18  19  20  21  22  23  25  26 0
 3-21G
 ****
 31  33  36  37  38  39  40  41  42  43  44  45  46 0
 3-21G
 ****


