%nproc=1
%NoSave
%Mem=1900MB
#P OB98/GEN NMR

erre ene a

0 1
  C     -267.472     -42.290     -97.904
  O     -267.699     -42.743     -99.230
  P     -268.980     -43.677     -99.484
  C     -269.655     -46.085     -98.777
  O     -268.649     -45.074     -98.767
  C     -269.107     -47.388     -98.215
  O     -268.016     -47.857     -99.034
  C     -268.534     -47.278     -96.809
  O     -269.553     -47.315     -95.819
  C     -267.664     -48.529     -96.745
  O     -268.478     -49.674     -96.435
  C     -267.134     -48.626     -98.187
  N     -262.201     -49.808     -98.169
  C     -263.305     -50.613     -97.985
  N     -263.064     -51.932     -97.795
  N     -264.536     -50.175     -97.985
  C     -264.631     -48.844     -98.225
  C     -263.609     -47.938     -98.424
  C     -262.247     -48.430     -98.369
  O     -261.226     -47.749     -98.460
  N     -264.099     -46.676     -98.649
  C     -265.412     -46.822     -98.633
  N     -265.780     -48.114     -98.350
  O     -268.868     -44.030    -101.046
  O     -270.296     -43.057     -99.149
  H     -269.158     -49.741     -97.130
  H     -269.754     -44.238    -101.401
  H     -261.280     -50.200     -98.180
  H     -266.122     -46.031     -98.820
  H     -267.159     -49.661     -98.550
  H     -266.883     -48.472     -95.983
  H     -262.151     -52.347     -97.915
  H     -267.905     -46.390     -96.704
  H     -263.864     -52.547     -97.692
  H     -269.906     -48.140     -98.249
  H     -269.985     -46.252     -99.806
  H     -270.509     -45.738     -98.188
  P     -269.574     -46.104     -94.764
  C     -267.668     -45.184     -93.251
  O     -268.290     -46.317     -93.847
  O     -270.806     -46.478     -93.806
  O     -269.730     -44.758     -95.389
  H     -271.177     -45.664     -93.404
  H     -268.410     -44.435     -92.958
  H     -266.969     -44.742     -93.967
  H     -267.123     -45.503     -92.363
  H     -266.592     -41.682     -97.881
  H     -267.341     -43.132     -97.257
  H     -268.312     -41.714     -97.575

 3  4  5  6  7  8  9  10  11  12  23  26  30  31  33  0
 6-311+G(2d,p)
 ****
 35  36  37  38 0
 6-311+G(2d,p)
 ****
 1  2  13  14  15  16  17  18  19  20  21  22  24  25  27  28  29 0
 3-21G
 ****
 32  34  39  40  41  42  43  44  45  46  47  48  49 0
 3-21G
 ****


