%nproc=1
%NoSave
%Mem=1900MB
#P OB98/GEN NMR

erre ene a

0 1
  C      -63.363     674.520     -11.086
  O      -64.518     674.330     -10.269
  P      -65.492     673.124     -10.681
  C      -65.123     672.002      -8.369
  O      -65.111     671.849      -9.781
  C      -65.914     670.868      -7.709
  O      -67.335     671.029      -7.860
  C      -65.585     669.496      -8.281
  O      -64.372     669.016      -7.726
  C      -66.802     668.685      -7.856
  O      -66.662     668.198      -6.504
  C      -67.942     669.714      -7.940
  N      -72.604     668.810      -9.712
  C      -72.100     668.664      -8.432
  N      -72.968     668.247      -7.487
  N      -70.854     668.914      -8.108
  C      -70.102     669.326      -9.156
  C      -70.496     669.534     -10.458
  C      -71.871     669.250     -10.806
  O      -72.368     669.383     -11.916
  N      -69.459     670.017     -11.225
  C      -68.419     669.980     -10.410
  N      -68.768     669.632      -9.131
  O      -64.985     672.728     -12.148
  O      -66.936     673.497     -10.680
  H      -65.837     667.680      -6.437
  H      -65.655     672.987     -12.810
  H      -73.567     668.595      -9.908
  H      -67.406     670.221     -10.692
  H      -68.624     669.624      -7.086
  H      -66.943     667.801      -8.484
  H      -73.937     668.040      -7.667
  H      -65.532     669.542      -9.376
  H      -72.621     668.144      -6.543
  H      -65.681     670.888      -6.636
  H      -65.565     672.962      -8.102
  H      -64.090     672.020      -8.009
  P      -63.295     668.370      -8.725
  C      -61.483     670.127      -8.123
  O      -62.267     669.525      -9.132
  O      -64.146     668.117     -10.060
  O      -62.676     667.105      -8.230
  H      -63.932     667.235     -10.415
  H      -60.537     670.459      -8.560
  H      -61.267     669.430      -7.307
  H      -62.014     670.998      -7.723
  H      -62.796     675.348     -10.714
  H      -63.667     674.719     -12.092
  H      -62.761     673.636     -11.064

 3  4  5  6  7  8  9  10  11  12  23  26  30  31 0
 6-311+G(2d,p)
 ****
 33  35  36  37  38 0
 6-311+G(2d,p)
 ****
 1  2  13  14  15  16  17  18  19  20  21  22  24  25 0
 3-21G
 ****
 27  28  29  32  34  39  40  41  42  43  44  45  46  47  48  49 0
 3-21G
 ****


