%nproc=1
%NoSave
%Mem=1900MB
#P OB98/GEN NMR

erre ene a

0 1
  C     -365.721     168.975    -229.607
  O     -365.842     169.189    -231.019
  P     -367.161     168.595    -231.723
  C     -367.066     170.132    -233.816
  O     -367.022     168.806    -233.302
  C     -365.809     170.439    -234.618
  O     -364.637     170.536    -233.771
  C     -365.467     169.354    -235.641
  O     -366.324     169.426    -236.763
  C     -364.001     169.686    -235.941
  O     -363.911     170.786    -236.855
  C     -363.487     170.121    -234.553
  N     -358.891     168.055    -233.652
  C     -359.278     169.109    -234.412
  N     -360.521     169.596    -234.604
  C     -361.422     168.887    -233.898
  C     -361.177     167.793    -233.077
  C     -359.843     167.379    -232.964
  N     -359.451     166.294    -232.208
  N     -362.350     167.328    -232.521
  C     -363.290     168.113    -233.016
  N     -362.778     169.073    -233.846
  O     -368.306     169.632    -231.295
  O     -367.485     167.202    -231.294
  H     -364.369     171.549    -236.447
  H     -368.905     169.220    -230.642
  H     -358.476     169.626    -234.938
  H     -364.356     168.016    -232.810
  H     -362.808     170.980    -234.614
  H     -363.455     168.848    -236.371
  H     -365.534     168.359    -235.175
  H     -365.945     171.394    -235.135
  H     -367.158     170.856    -232.993
  H     -358.480     166.017    -232.242
  H     -360.154     165.727    -231.755
  H     -367.966     170.247    -234.430
  P     -367.475     168.313    -236.899
  C     -368.911     170.008    -238.180
  O     -368.269     168.743    -238.223
  O     -368.472     168.737    -235.730
  O     -366.991     166.902    -236.862
  H     -368.641     169.704    -235.725
  H     -369.387     170.192    -239.153
  H     -368.186     170.796    -237.993
  H     -369.686     170.005    -237.411
  H     -364.810     169.413    -229.257
  H     -365.713     167.924    -229.405
  H     -366.550     169.428    -229.105

 3  4  5  6  7  8  9  10  11  12  22  25  29  30  31  32 0
 6-311+G(2d,p)
 ****
 33  36  37 0
 6-311+G(2d,p)
 ****
 1  2  13  14  15  16  17  18  19  20  21  23  24  26 0
 3-21G
 ****
 27  28  34  35  38  39  40  41  42  43  44  45  46  47  48 0
 3-21G
 ****


