%nproc=1
%NoSave
%Mem=1900MB
#P OB98/GEN NMR

erre ene a

0 1
  C     -156.893     595.854     481.423
  O     -156.832     597.230     481.133
  P     -155.448     597.889     480.655
  C     -156.964     599.553     479.425
  O     -155.760     599.385     480.146
  C     -156.976     600.917     478.720
  O     -155.685     601.195     478.136
  C     -157.972     601.008     477.565
  O     -159.291     601.166     478.051
  C     -157.429     602.215     476.803
  O     -157.872     603.441     477.416
  C     -155.912     602.041     476.985
  N     -152.738     602.976     473.095
  C     -153.335     603.798     474.001
  N     -154.195     603.473     474.984
  C     -154.455     602.148     474.968
  C     -153.960     601.210     474.078
  C     -153.039     601.657     473.120
  N     -152.401     600.824     472.235
  N     -154.503     599.960     474.366
  C     -155.302     600.158     475.382
  N     -155.268     601.448     475.825
  O     -154.638     597.052     479.719
  O     -154.650     598.136     482.026
  H     -158.823     603.356     477.564
  H     -153.818     597.630     482.011
  H     -153.058     604.848     473.930
  H     -155.914     599.397     475.858
  H     -155.415     603.006     477.192
  H     -157.751     602.227     475.762
  H     -157.897     600.111     476.931
  H     -157.189     601.684     479.474
  H     -157.804     599.492     480.109
  H     -151.644     601.237     471.694
  H     -152.368     599.832     472.440
  H     -157.062     598.739     478.668
  P     -160.543     600.723     477.131
  C     -161.700     600.246     479.377
  O     -161.843     600.770     478.069
  O     -160.347     599.455     476.348
  O     -160.743     601.987     476.165
  H     -161.082     601.670     475.306
  H     -161.722     599.147     479.325
  H     -162.521     600.593     479.984
  H     -160.743     600.561     479.827
  H     -157.887     595.597     481.723
  H     -156.211     595.626     482.215
  H     -156.627     595.294     480.551

 3  4  5  6  7  8  9  10  11  12  22  25  29  30  31  32 0
 6-311+G(2d,p)
 ****
 33  36  37 0
 6-311+G(2d,p)
 ****
 1  2  13  14  15  16  17  18  19  20  21  23  24  26 0
 3-21G
 ****
 27  28  34  35  38  39  40  41  42  43  44  45  46  47  48 0
 3-21G
 ****


