%nproc=1
%NoSave
%Mem=1900MB
#P OB98/GEN NMR

erre ene a

0 1
  C     -318.206     188.701     -31.115
  O     -318.079     189.541     -32.239
  H     -318.194     189.323     -30.214
  H     -317.365     188.005     -31.060
  H     -319.148     188.150     -31.147
  P     -318.023     188.889     -33.704
  C     -320.463     189.597     -34.066
  O     -319.547     188.510     -34.059
  C     -321.897     189.109     -33.859
  O     -321.978     188.342     -32.628
  C     -322.929     190.243     -33.764
  O     -324.052     189.946     -34.594
  C     -323.353     190.220     -32.304
  O     -324.646     190.775     -32.090
  C     -323.206     188.729     -31.985
  N     -323.189     188.473     -30.552
  C     -324.421     188.559     -29.896
  O     -325.443     188.830     -30.528
  N     -324.460     188.390     -28.536
  C     -323.357     188.200     -27.881
  N     -323.461     188.069     -26.532
  C     -322.031     188.131     -28.530
  C     -322.021     188.271     -29.856
  O     -317.044     187.774     -33.853
  O     -317.729     190.117     -34.688
  H     -324.975     190.469     -31.216
  H     -317.337     189.769     -35.523
  H     -321.142     187.976     -27.940
  H     -321.094     188.236     -30.419
  H     -324.023     188.149     -32.437
  H     -322.635     190.800     -31.710
  H     -322.525     191.215     -34.048
  H     -322.146     188.413     -34.671
  H     -324.388     188.130     -26.129
  H     -320.372     190.127     -35.021
  H     -322.672     187.943     -25.917
  H     -320.198     190.278     -33.249
  P     -323.926     190.366     -36.139
  C     -323.584     187.933     -36.973
  O     -323.053     189.246     -36.886
  O     -322.962     191.643     -36.095
  O     -325.236     190.687     -36.777
  H     -323.469     192.448     -36.314
  H     -322.894     187.303     -37.494
  H     -324.513     187.959     -37.502
  H     -323.745     187.547     -35.988

 6  7  8  9  10  11  12  13  14  15  16  26  30  31  32  33  35 0
 6-311+G(2d,p)
 ****
 37  38 0
 6-311+G(2d,p)
 ****
 1  2  3  4  5  17  18  19  20  21  22  23  24  25 0
 3-21G
 ****
 27  28  29  34  36  39  40  41  42  43  44  45  46 0
 3-21G
 ****


