%nproc=1
%NoSave
%Mem=1900MB
#P OB98/GEN NMR

erre ene a

0 1
  C      101.726    -228.879    -379.085
  O      102.767    -229.832    -378.864
  P      104.293    -229.391    -379.106
  C      105.262    -231.088    -380.773
  O      105.173    -230.698    -379.410
  C      105.340    -232.615    -380.947
  O      106.552    -233.137    -380.320
  C      104.161    -233.385    -380.342
  O      103.907    -234.501    -381.207
  C      104.703    -233.845    -379.002
  O      103.954    -234.916    -378.449
  C      106.149    -234.177    -379.406
  N      107.039    -234.251    -378.251
  C      107.428    -235.526    -377.827
  O      106.938    -236.529    -378.351
  N      108.329    -235.623    -376.799
  C      108.697    -234.551    -376.165
  N      109.620    -234.695    -375.162
  C      108.165    -233.209    -376.468
  C      107.375    -233.130    -377.530
  O      104.869    -228.464    -378.078
  O      104.229    -228.674    -380.548
  H      104.363    -235.190    -377.596
  H      104.873    -227.934    -380.561
  H      108.434    -232.361    -375.852
  H      106.939    -232.191    -377.840
  H      106.193    -235.130    -379.945
  H      104.681    -233.006    -378.287
  H      103.246    -232.784    -380.264
  H      105.413    -232.836    -382.022
  H      109.952    -235.620    -374.941
  H      106.150    -230.634    -381.221
  H      109.980    -233.902    -374.649
  H      104.399    -230.680    -381.327
  P      102.807    -234.363    -382.366
  C      101.882    -236.760    -381.974
  O      102.444    -235.832    -382.877
  O      103.687    -233.785    -383.586
  O      101.670    -233.432    -382.083
  H      103.100    -233.302    -384.196
  H      101.443    -237.595    -382.553
  H      101.096    -236.302    -381.377
  H      102.660    -237.161    -381.318
  H      100.778    -229.332    -378.880
  H      101.752    -228.552    -380.104
  H      101.868    -228.039    -378.437

 3  4  5  6  7  8  9  10  11  12  13  23  27  28  29  30  32 0
 6-311+G(2d,p)
 ****
 34  35 0
 6-311+G(2d,p)
 ****
 1  2  14  15  16  17  18  19  20  21  22  24  25  26 0
 3-21G
 ****
 31  33  36  37  38  39  40  41  42  43  44  45  46 0
 3-21G
 ****


