%nproc=1
%NoSave
%Mem=1900MB
#P OB98/GEN NMR

erre ene a

0 1
  C      277.729     -43.589     176.075
  O      278.298     -44.736     176.674
  H      277.802     -42.753     176.775
  H      276.674     -43.759     175.845
  H      278.271     -43.325     175.161
  P      278.306     -46.102     175.839
  C      275.799     -46.667     176.108
  O      276.834     -46.250     175.224
  C      274.513     -46.915     175.330
  O      273.977     -45.672     174.833
  C      274.690     -47.828     174.115
  O      274.701     -49.186     174.515
  C      273.458     -47.451     173.307
  O      272.294     -48.075     173.879
  C      273.404     -45.927     173.522
  N      273.296     -43.923     168.867
  C      272.368     -44.717     169.512
  N      271.276     -45.062     168.797
  N      272.508     -45.153     170.736
  C      273.684     -44.787     171.301
  C      274.687     -44.016     170.757
  C      274.494     -43.495     169.421
  O      275.284     -42.773     168.816
  N      275.758     -43.911     171.607
  C      275.386     -44.585     172.681
  N      274.140     -45.150     172.538
  O      278.781     -47.323     176.568
  O      279.211     -45.774     174.563
  H      272.257     -47.793     174.812
  H      280.143     -46.013     174.719
  H      273.138     -43.635     167.914
  H      275.977     -44.695     173.580
  H      272.376     -45.546     173.531
  H      273.517     -47.761     172.265
  H      271.254     -44.997     167.786
  H      275.579     -47.562     173.536
  H      270.608     -45.685     169.233
  H      273.773     -47.328     176.027
  H      275.656     -45.867     176.844
  H      276.094     -47.580     176.635
  P      275.948     -50.142     174.171
  C      274.885     -51.013     171.981
  O      275.942     -50.265     172.574
  O      275.960     -51.443     174.898
  O      277.232     -49.237     174.444
  H      277.557     -49.280     175.378
  H      275.002     -51.014     170.917
  H      273.946     -50.568     172.236
  H      274.913     -52.019     172.344

 6  7  8  9  10  11  12  13  14  15  26  29  33  34 0
 6-311+G(2d,p)
 ****
 36  38  39  40  41 0
 6-311+G(2d,p)
 ****
 1  2  3  4  5  16  17  18  19  20  21  22  23  24  25 0
 3-21G
 ****
 27  28  30  31  32  35  37  42  43  44  45  46  47 0
 3-21G
 ****
 48  49 0
 3-21G
 ****


