%nproc=1
%NoSave
%Mem=1900MB
#P OB98/GEN NMR

erre ene a

0 1
  C     -724.385    -474.502    -261.962
  O     -724.652    -475.246    -263.118
  H     -724.680    -473.460    -262.132
  H     -723.323    -474.532    -261.726
  H     -724.969    -474.893    -261.116
  P     -724.314    -476.827    -263.065
  C     -726.797    -477.570    -263.340
  O     -725.631    -477.551    -262.512
  C     -727.038    -478.980    -263.862
  O     -727.224    -479.895    -262.755
  C     -728.283    -479.121    -264.708
  O     -728.110    -478.632    -266.045
  C     -728.545    -480.609    -264.638
  O     -727.742    -481.322    -265.591
  C     -728.082    -480.953    -263.207
  N     -730.332    -484.066    -259.843
  C     -729.151    -484.152    -260.528
  N     -728.633    -483.276    -261.399
  C     -729.427    -482.196    -261.501
  C     -730.636    -481.947    -260.858
  C     -731.083    -482.948    -259.994
  N     -732.278    -482.872    -259.317
  N     -731.158    -480.753    -261.277
  C     -730.285    -480.261    -262.117
  N     -729.218    -481.101    -262.302
  O     -723.279    -476.914    -261.839
  O     -723.745    -477.398    -264.320
  H     -727.952    -480.944    -266.462
  H     -722.374    -476.976    -262.181
  H     -728.597    -485.069    -260.344
  H     -730.390    -479.318    -262.655
  H     -727.511    -481.888    -263.166
  H     -729.595    -480.850    -264.825
  H     -729.138    -478.586    -264.227
  H     -726.148    -479.293    -264.420
  H     -726.642    -476.873    -264.191
  H     -727.644    -477.213    -262.748
  H     -732.570    -483.653    -258.755
  H     -732.902    -482.090    -259.521
  P     -729.209    -477.622    -266.639
  C     -727.477    -475.754    -267.213
  O     -728.612    -476.142    -266.455
  O     -730.392    -477.665    -265.557
  O     -729.686    -477.952    -267.998
  H     -731.251    -477.569    -266.006
  H     -727.213    -474.746    -266.970
  H     -727.705    -475.821    -268.256
  H     -726.657    -476.402    -266.984

 6  7  8  9  10  11  12  13  14  15  25  28  32  33  34  35 0
 6-311+G(2d,p)
 ****
 36  37  40 0
 6-311+G(2d,p)
 ****
 1  2  3  4  5  16  17  18  19  20  21  22  23  24 0
 3-21G
 ****
 26  27  29  30  31  38  39 41  42  43  44  45  46  47  48 0
 3-21G
 ****


