%nproc=1
%NoSave
%Mem=1900MB
#P OB98/GEN NMR

erre ene a

0 1
  C      121.167    -105.707     143.983
  O      120.434    -106.938     143.950
  P      120.659    -108.094     145.039
  C      118.342    -107.604     146.052
  O      119.731    -107.790     146.312
  C      117.544    -107.415     147.346
  O      118.009    -106.259     148.070
  C      116.046    -107.211     147.142
  O      115.403    -108.445     146.889
  C      115.656    -106.537     148.454
  O      115.490    -107.518     149.492
  C      116.882    -105.660     148.737
  N      114.892    -101.114     149.970
  C      114.929    -102.292     150.629
  N      115.474    -103.462     150.232
  C      116.049    -103.329     149.025
  C      116.087    -102.192     148.232
  C      115.471    -101.041     148.749
  N      115.422     -99.847     148.070
  N      116.743    -102.446     147.046
  C      117.110    -103.710     147.129
  N      116.714    -104.286     148.305
  O      122.092    -108.350     145.374
  O      119.987    -109.397     144.393
  H      116.379    -107.760     149.810
  H      120.431    -110.196     144.731
  H      114.455    -102.298     151.608
  H      117.663    -104.247     146.370
  H      117.126    -105.640     149.806
  H      114.719    -105.978     148.381
  H      115.873    -106.516     146.313
  H      117.726    -108.291     147.982
  H      117.970    -108.485     145.517
  H      114.932     -99.075     148.495
  H      115.811     -99.796     147.139
  H      118.223    -106.724     145.410
  P      114.742    -108.728     145.458
  C      115.923    -110.987     145.165
  O      115.751    -109.679     144.652
  O      114.273    -107.524     144.714
  O      113.525    -109.714     145.793
  H      112.815    -109.582     145.137
  H      116.621    -110.959     146.006
  H      116.340    -111.620     144.378
  H      114.969    -111.408     145.494
  H      120.858    -105.086     143.168
  H      122.214    -105.913     143.898
  H      120.976    -105.203     144.907

 3  4  5  6  7  8  9  10  11  12  22  25  29  30  31  32 0
 6-311+G(2d,p)
 ****
 33  36  37 0
 6-311+G(2d,p)
 ****
 1  2  13  14  15  16  17  18  19  20  21  23  24  26 0
 3-21G
 ****
 27  28  34  35  38  39  40  41  42  43  44  45  46  47  48 0
 3-21G
 ****


