%nproc=1
%NoSave
%Mem=1900MB
#P OB98/GEN NMR

erre ene a

0 1
  C      464.949     -66.672     -11.918
  O      463.721     -67.341     -12.123
  H      465.603     -66.875     -12.771
  H      465.434     -67.042     -11.012
  H      464.797     -65.593     -11.843
  P      462.519     -67.076     -11.097
  C      461.118     -66.011     -12.978
  O      461.672     -65.847     -11.678
  C      459.623     -66.307     -12.871
  O      458.950     -65.216     -12.201
  C      458.927     -66.450     -14.219
  O      459.217     -67.693     -14.826
  C      457.477     -66.251     -13.813
  O      456.916     -67.462     -13.292
  C      457.593     -65.183     -12.702
  N      457.242     -63.849     -13.187
  C      456.072     -63.298     -12.678
  O      455.357     -63.868     -11.854
  N      455.712     -62.082     -13.190
  C      456.320     -61.451     -14.237
  O      455.824     -60.494     -14.826
  C      457.586     -62.046     -14.695
  C      457.976     -63.208     -14.166
  O      462.909     -66.957      -9.661
  O      461.542     -68.325     -11.332
  H      461.666     -68.971     -10.610
  H      455.988     -67.247     -13.055
  H      454.841     -61.695     -12.853
  H      458.136     -61.536     -15.477
  H      458.888     -63.683     -14.510
  H      456.938     -65.434     -11.860
  H      456.862     -65.935     -14.657
  H      459.227     -65.626     -14.878
  H      459.491     -67.214     -12.266
  H      461.620     -66.851     -13.472
  H      461.295     -65.098     -13.556
  P      460.127     -67.758     -16.142
  C      462.117     -68.781     -14.876
  O      461.665     -67.704     -15.694
  O      459.757     -66.791     -17.220
  O      459.961     -69.267     -16.655
  H      459.735     -69.253     -17.606
  H      463.151     -68.640     -14.640
  H      461.994     -69.705     -15.402
  H      461.545     -68.806     -13.972

 6  7  8  9  10  11  12  13  14  15  16  27  31  32  33  34  35 0
 6-311+G(2d,p)
 ****
 36  37 0
 6-311+G(2d,p)
 ****
 1  2  3  4  5  17  18  19  20  21  22  23  24  25 0
 3-21G
 ****
 26  28  29  30  38  39  40  41  42  43  44  45 0
 3-21G
 ****


