%nproc=1
%NoSave
%Mem=1900MB
#P OB98/GEN NMR

erre ene a

0 1
  C      -94.860    -291.368    -501.644
  O      -94.436    -292.551    -500.992
  H      -94.270    -290.526    -501.269
  H      -95.916    -291.181    -501.435
  H      -94.705    -291.456    -502.724
  P      -95.258    -293.886    -501.335
  C      -93.772    -294.845    -503.255
  O      -94.945    -294.132    -502.891
  C      -94.136    -296.274    -503.644
  O      -94.865    -296.290    -504.890
  C      -92.932    -297.189    -503.868
  O      -92.361    -297.653    -502.651
  C      -93.581    -298.305    -504.654
  O      -94.344    -299.149    -503.768
  C      -94.511    -297.508    -505.605
  N      -93.882    -297.195    -506.889
  C      -93.881    -298.205    -507.856
  O      -94.376    -299.310    -507.608
  N      -93.283    -297.962    -509.068
  C      -92.751    -296.802    -509.303
  N      -92.158    -296.622    -510.519
  C      -92.742    -295.703    -508.324
  C      -93.317    -295.964    -507.156
  O      -96.783    -293.397    -501.362
  O      -95.004    -295.061    -500.446
  H      -95.064    -298.598    -503.409
  H      -97.365    -294.126    -501.686
  H      -92.272    -294.760    -508.562
  H      -93.347    -295.199    -506.382
  H      -95.441    -298.062    -505.794
  H      -92.859    -298.955    -505.164
  H      -92.176    -296.708    -504.494
  H      -94.804    -296.680    -502.868
  H      -92.123    -297.414    -511.151
  H      -93.088    -294.847    -502.398
  H      -91.565    -295.824    -510.723
  H      -93.278    -294.353    -504.097
  P      -90.803    -298.044    -502.662
  C      -90.169    -295.656    -501.827
  O      -89.981    -296.668    -502.812
  O      -90.615    -298.744    -504.084
  O      -90.362    -298.927    -501.533
  H      -90.000    -299.500    -504.027
  H      -89.559    -294.810    -502.064
  H      -89.892    -296.037    -500.866
  H      -91.197    -295.361    -501.811

 6  7  8  9  10  11  12  13  14  15  16  26  30  31  32  33  35 0
 6-311+G(2d,p)
 ****
 37  38 0
 6-311+G(2d,p)
 ****
 1  2  3  4  5  17  18  19  20  21  22  23  24  25 0
 3-21G
 ****
 27  28  29  34  36  39  40  41  42  43  44  45  46 0
 3-21G
 ****


