%nproc=1
%NoSave
%Mem=1900MB
#P OB98/GEN NMR

erre ene a

0 1
  C     -228.312    -587.685       2.470
  O     -227.201    -586.823       2.214
  P     -227.065    -585.414       2.979
  C     -225.860    -584.313       1.018
  O     -225.784    -584.627       2.398
  C     -224.638    -583.532       0.504
  O     -224.809    -582.108       0.704
  C     -223.304    -583.920       1.155
  O     -222.307    -583.764       0.143
  C     -223.159    -582.861       2.235
  O     -221.812    -582.742       2.703
  C     -223.721    -581.629       1.517
  N     -224.141    -580.589       2.446
  C     -223.225    -579.575       2.734
  O     -222.092    -579.616       2.259
  N     -223.602    -578.580       3.597
  C     -224.742    -578.632       4.193
  N     -225.049    -577.613       5.051
  C     -225.718    -579.727       3.981
  C     -225.360    -580.656       3.098
  O     -227.111    -585.510       4.473
  O     -228.307    -584.562       2.426
  H     -221.474    -583.643       2.891
  H     -228.595    -583.935       3.120
  H     -226.657    -579.744       4.520
  H     -226.000    -581.494       2.867
  H     -222.967    -581.199       0.839
  H     -223.793    -583.122       3.093
  H     -223.301    -584.938       1.555
  H     -224.576    -583.694      -0.586
  H     -224.343    -576.903       5.191
  H     -226.762    -583.710       0.841
  H     -225.865    -577.618       5.647
  H     -225.975    -585.232       0.435
  P     -221.841    -584.975      -0.792
  C     -219.347    -584.453      -1.063
  O     -220.621    -584.435      -1.674
  O     -222.935    -585.630      -1.571
  O     -221.135    -586.020       0.212
  H     -221.075    -586.885      -0.219
  H     -218.576    -584.270      -1.822
  H     -219.156    -585.424      -0.595
  H     -219.293    -583.667      -0.300
  H     -228.225    -588.567       1.870
  H     -229.221    -587.176       2.227
  H     -228.321    -587.957       3.505

 3  4  5  6  7  8  9  10  11  12  13  23  27  28  29  30  32 0
 6-311+G(2d,p)
 ****
 34  35 0
 6-311+G(2d,p)
 ****
 1  2  14  15  16  17  18  19  20  21  22  24  25  26 0
 3-21G
 ****
 31  33  36  37  38  39  40  41  42  43  44  45  46 0
 3-21G
 ****


