%nproc=1
%NoSave
%Mem=1900MB
#P OB98/GEN NMR

erre ene a

0 1
  C       -3.620     -21.087     -38.469
  O       -3.251     -22.419     -38.102
  P       -2.297     -22.576     -36.823
  C       -1.047     -24.729     -37.563
  O       -1.952     -24.132     -36.645
  C       -1.244     -26.244     -37.585
  O       -1.354     -26.788     -36.251
  C       -2.516     -26.679     -38.301
  O       -2.371     -26.572     -39.707
  C       -2.662     -28.106     -37.784
  O       -1.782     -28.992     -38.497
  C       -2.189     -27.969     -36.328
  N       -5.653     -30.554     -33.592
  C       -4.696     -30.962     -34.454
  N       -3.814     -30.210     -35.145
  C       -3.979     -28.907     -34.866
  C       -4.907     -28.343     -34.006
  C       -5.779     -29.228     -33.351
  N       -6.763     -28.812     -32.484
  N       -4.775     -26.969     -33.981
  C       -3.800     -26.709     -34.828
  N       -3.280     -27.848     -35.379
  O       -3.270     -22.259     -35.594
  O       -1.116     -21.663     -36.842
  H       -1.847     -29.870     -38.071
  H       -3.047     -21.392     -35.207
  H       -4.631     -32.035     -34.611
  H       -3.439     -25.718     -35.074
  H       -1.578     -28.821     -36.009
  H       -3.677     -28.498     -37.889
  H       -3.365     -26.070     -37.967
  H       -0.370     -26.695     -38.073
  H       -0.016     -24.494     -37.285
  H       -7.396     -29.505     -32.118
  H       -6.923     -27.821     -32.365
  H       -1.212     -24.294     -38.554
  P       -3.315     -25.531     -40.478
  C       -3.606     -26.996     -42.567
  O       -3.017     -25.826     -42.030
  O       -2.547     -24.154     -40.230
  O       -4.749     -25.563     -40.076
  H       -1.588     -24.242     -40.379
  H       -3.353     -27.056     -43.629
  H       -4.693     -26.955     -42.462
  H       -3.213     -27.880     -42.059
  H       -4.253     -21.117     -39.331
  H       -2.739     -20.522     -38.693
  H       -4.144     -20.626     -37.658

 3  4  5  6  7  8  9  10  11  12  22  25  29  30  31  32 0
 6-311+G(2d,p)
 ****
 33  36  37 0
 6-311+G(2d,p)
 ****
 1  2  13  14  15  16  17  18  19  20  21  23  24  26 0
 3-21G
 ****
 27  28  34  35  38  39  40  41  42  43  44  45  46  47  48 0
 3-21G
 ****


