%nproc=1
%NoSave
%Mem=1900MB
#P OB98/GEN NMR

erre ene a

0 1
  C      -36.269     199.332     542.664
  O      -35.076     199.512     543.401
  P      -33.952     198.368     543.444
  C      -33.351     196.350     544.906
  O      -34.299     197.370     544.655
  C      -33.586     195.695     546.270
  O      -33.377     196.683     547.322
  C      -34.990     195.104     546.454
  O      -34.846     193.896     547.203
  C      -35.700     196.163     547.279
  O      -36.820     195.637     547.978
  C      -34.552     196.664     548.160
  N      -34.819     197.970     548.734
  C      -35.670     198.009     549.844
  O      -36.260     196.996     550.208
  N      -35.841     199.212     550.495
  C      -35.355     200.298     549.969
  N      -35.487     201.451     550.682
  C      -34.664     200.318     548.666
  C      -34.390     199.128     548.125
  O      -32.543     198.865     543.441
  O      -34.247     197.473     542.146
  H      -33.426     197.398     541.615
  H      -36.504     195.146     548.759
  H      -34.390     201.259     548.215
  H      -33.859     199.044     547.185
  H      -34.354     195.951     548.970
  H      -36.062     196.966     546.626
  H      -35.480     194.885     545.500
  H      -32.829     194.918     546.411
  H      -35.932     201.391     551.591
  H      -32.358     196.801     544.895
  H      -34.886     202.257     550.522
  H      -33.390     195.599     544.110
  P      -35.170     192.499     546.466
  C      -36.894     190.603     546.906
  O      -36.591     191.975     547.016
  O      -34.145     191.502     547.203
  O      -34.954     192.455     544.991
  H      -33.960     190.747     546.611
  H      -37.921     190.442     547.249
  H      -36.218     190.010     547.521
  H      -36.830     190.280     545.861
  H      -36.884     200.202     542.762
  H      -36.795     198.480     543.040
  H      -36.031     199.178     541.632

 3  4  5  6  7  8  9  10  11  12  13  24  27  28  29  30  32 0
 6-311+G(2d,p)
 ****
 34  35 0
 6-311+G(2d,p)
 ****
 1  2  14  15  16  17  18  19  20  21  22  23  25  26 0
 3-21G
 ****
 31  33  36  37  38  39  40  41  42  43  44  45  46 0
 3-21G
 ****


