%nproc=1
%NoSave
%Mem=1900MB
#P OB98/GEN NMR

erre ene a

0 1
  C     -496.490     386.622     302.696
  O     -495.788     387.154     301.589
  H     -496.239     385.560     302.793
  H     -497.568     386.716     302.560
  H     -496.188     387.136     303.617
  P     -496.180     388.627     301.084
  C     -493.733     388.743     300.278
  O     -495.099     388.994     299.956
  C     -492.857     388.780     299.024
  O     -493.183     389.933     298.221
  C     -491.365     388.909     299.316
  O     -490.796     387.748     299.901
  C     -490.820     389.429     297.997
  O     -490.517     388.401     297.059
  C     -491.995     390.289     297.476
  N     -491.714     391.717     297.547
  C     -491.679     392.386     296.325
  O     -491.849     391.835     295.241
  N     -491.391     393.724     296.388
  C     -491.095     394.428     297.524
  O     -490.804     395.617     297.514
  C     -491.116     393.655     298.782
  C     -491.421     392.354     298.735
  O     -496.321     389.665     302.156
  O     -497.515     388.391     300.238
  H     -489.716     387.945     297.372
  H     -498.001     389.240     300.095
  H     -491.372     394.234     295.518
  H     -490.882     394.188     299.694
  H     -491.450     391.767     299.649
  H     -492.209     390.039     296.428
  H     -489.898     390.004     298.141
  H     -491.231     389.716     300.048
  H     -493.068     387.886     298.424
  H     -493.676     387.746     300.725
  H     -493.385     389.481     301.008
  P     -489.797     387.812     301.148
  C     -490.472     385.355     301.679
  O     -489.417     386.300     301.556
  O     -490.126     388.789     302.233
  O     -488.437     388.328     300.436
  H     -487.964     388.883     301.078
  H     -490.068     384.403     301.953
  H     -490.985     385.269     300.744
  H     -491.157     385.682     302.433

 6  7  8  9  10  11  12  13  14  15  16  26  31  32  33  34  35 0
 6-311+G(2d,p)
 ****
 36  37 0
 6-311+G(2d,p)
 ****
 1  2  3  4  5  17  18  19  20  21  22  23  24  25 0
 3-21G
 ****
 27  28  29  30  38  39  40  41  42  43  44  45 0
 3-21G
 ****


