%nproc=1
%NoSave
%Mem=1900MB
#P OB98/GEN NMR

erre ene a

0 1
  C       79.584     787.578     134.655
  O       78.823     788.753     134.850
  H       80.327     787.510     135.449
  H       80.103     787.624     133.693
  H       78.946     786.690     134.690
  P       77.545     789.012     133.908
  C       78.421     791.168     132.796
  O       77.452     790.596     133.673
  C       78.054     792.619     132.496
  O       76.759     792.686     131.866
  C       77.940     793.495     133.746
  O       79.207     793.831     134.267
  C       77.135     794.661     133.199
  O       77.976     795.599     132.519
  C       76.174     793.964     132.214
  N       74.837     793.796     132.776
  C       73.965     794.863     132.614
  O       74.264     795.919     132.040
  N       72.736     794.732     133.214
  C       72.366     793.713     134.048
  O       71.358     793.753     134.751
  C       73.300     792.579     134.122
  C       74.470     792.678     133.506
  O       76.275     788.361     134.354
  O       78.017     788.464     132.478
  H       77.622     787.585     132.326
  H       78.191     795.192     131.652
  H       72.115     795.529     133.142
  H       73.007     791.718     134.714
  H       75.197     791.862     133.562
  H       76.101     794.536     131.276
  H       76.621     795.208     134.006
  H       77.341     792.973     134.509
  H       78.799     793.030     131.799
  H       78.432     790.594     131.859
  H       79.410     791.100     133.268
  P       79.842     792.977     135.462
  C       81.134     795.171     135.884
  O       81.151     793.751     135.993
  O       80.045     791.528     135.180
  O       78.803     793.183     136.677
  H       78.580     792.314     137.048
  H       82.051     795.569     136.266
  H       80.313     795.562     136.448
  H       81.026     795.449     134.856

 6  7  8  9  10  11  12  13  14  15  16  27  31  32  33  34  35 0
 6-311+G(2d,p)
 ****
 36  37 0
 6-311+G(2d,p)
 ****
 1  2  3  4  5  17  18  19  20  21  22  23  24  25 0
 3-21G
 ****
 26  28  29  30  38  39  40  41  42  43  44  45 0
 3-21G
 ****


