%nproc=1
%NoSave
%Mem=1900MB
#P OB98/GEN NMR

erre ene a

0 1
  C      138.724     919.750    1313.563
  O      138.085     920.481    1314.593
  H      137.975     919.489    1312.809
  H      139.161     918.840    1313.958
  H      139.499     920.367    1313.094
  P      138.980     920.887    1315.859
  C      139.093     918.602    1317.098
  O      138.553     919.918    1317.056
  C      138.484     917.844    1318.270
  O      138.630     918.613    1319.482
  C      136.999     917.558    1318.135
  O      136.715     916.469    1317.277
  C      136.614     917.281    1319.578
  O      136.870     915.905    1319.931
  C      137.557     918.227    1320.365
  N      136.823     919.382    1320.890
  C      135.944     919.144    1321.927
  O      135.792     918.022    1322.432
  N      135.233     920.212    1322.396
  C      135.268     921.472    1321.883
  O      134.560     922.391    1322.298
  C      136.192     921.687    1320.749
  C      136.923     920.647    1320.305
  O      138.389     922.316    1316.289
  O      140.452     920.945    1315.601
  H      139.018     923.017    1316.031
  H      136.728     915.848    1320.907
  H      134.606     920.045    1323.159
  H      136.236     922.677    1320.299
  H      137.591     920.776    1319.460
  H      138.002     917.702    1321.220
  H      135.560     917.472    1319.758
  H      136.472     918.473    1317.798
  H      139.040     916.887    1318.396
  H      140.181     918.654    1317.233
  H      138.878     918.102    1316.149
  P      136.212     916.807    1315.776
  C      133.714     916.081    1316.150
  O      134.955     915.855    1315.505
  O      137.423     916.156    1314.933
  O      136.009     918.264    1315.555
  H      137.848     915.415    1315.416
  H      133.009     915.340    1315.836
  H      133.349     917.053    1315.891
  H      133.847     916.021    1317.210

 6  7  8  9  10  11  12  13  14  15  16  27  31  32  33  34  35 0
 6-311+G(2d,p)
 ****
 36  37 0
 6-311+G(2d,p)
 ****
 1  2  3  4  5  17  18  19  20  21  22  23  24  25 0
 3-21G
 ****
 26  28  29  30  38  39  40  41  42  43  44  45 0
 3-21G
 ****


