%nproc=1
%NoSave
%Mem=1900MB
#P OB98/GEN NMR

erre ene a

0 1
  C     -135.416     116.373    -109.934
  O     -135.335     115.166    -109.201
  H     -134.578     117.020    -109.667
  H     -135.354     116.140    -111.001
  H     -136.362     116.884    -109.739
  P     -135.703     115.230    -107.641
  C     -133.668     114.036    -106.557
  O     -135.025     113.939    -106.964
  C     -133.021     112.652    -106.522
  O     -132.964     112.133    -107.881
  C     -131.593     112.636    -105.953
  O     -131.430     111.450    -105.169
  C     -130.726     112.529    -107.196
  O     -129.458     111.937    -106.932
  C     -131.616     111.689    -108.109
  N     -128.958     109.586    -111.899
  C     -129.398     109.091    -110.723
  N     -130.149     109.707    -109.790
  C     -130.505     110.937    -110.199
  C     -130.141     111.575    -111.373
  C     -129.311     110.847    -112.244
  N     -128.803     111.366    -113.414
  N     -130.657     112.856    -111.406
  C     -131.298     112.995    -110.262
  N     -131.233     111.863    -109.499
  O     -137.266     114.876    -107.643
  O     -135.424     116.529    -106.966
  H     -128.939     111.920    -107.760
  H     -137.785     115.693    -107.763
  H     -129.097     108.072    -110.496
  H     -131.796     113.894    -109.926
  H     -131.561     110.617    -107.882
  H     -130.562     113.528    -107.615
  H     -131.348     113.516    -105.349
  H     -133.670     111.978    -105.949
  H     -133.626     114.473    -105.553
  H     -128.128     110.811    -113.918
  H     -128.964     112.340    -113.628
  H     -133.130     114.692    -107.247
  P     -131.251     111.631    -103.586
  C     -128.745     110.947    -103.387
  O     -130.102     110.635    -103.086
  O     -132.587     110.985    -102.987
  O     -131.086     113.054    -103.154
  H     -132.852     111.448    -102.174
  H     -128.107     110.188    -102.986
  H     -128.492     111.892    -102.953
  H     -128.617     110.996    -104.448

 6  7  8  9  10  11  12  13  14  15  25  28  32  33  34  35 0
 6-311+G(2d,p)
 ****
 36  39  40 0
 6-311+G(2d,p)
 ****
 1  2  3  4  5  16  17  18  19  20  21  22  23  24 0
 3-21G
 ****
 26  27  29  30  31  37  38  41  42  43  44  45  46  47 0
 3-21G
 ****
 48 0
 3-21G
 ****


