%nproc=1
%NoSave
%Mem=1900MB
#P OB98/GEN NMR

erre ene a

0 1
  C     -123.431     139.962     595.688
  O     -123.213     139.083     594.611
  H     -123.178     139.441     596.623
  H     -124.476     140.275     595.736
  H     -122.778     140.843     595.602
  P     -123.569     139.585     593.128
  C     -121.342     140.852     592.769
  O     -122.762     140.948     592.889
  C     -120.875     141.578     591.506
  O     -121.154     142.999     591.678
  C     -119.362     141.414     591.266
  O     -119.052     140.940     589.955
  C     -118.786     142.770     591.673
  O     -117.572     143.118     591.041
  C     -119.944     143.741     591.394
  N     -119.908     144.968     592.186
  C     -119.324     146.090     591.589
  O     -118.875     146.127     590.447
  N     -119.289     147.202     592.377
  C     -119.751     147.323     593.662
  O     -119.699     148.362     594.301
  C     -120.324     146.098     594.233
  C     -120.381     145.000     593.490
  O     -125.023     139.649     592.799
  O     -122.798     138.548     592.175
  H     -116.848     142.884     591.668
  H     -123.440     137.899     591.811
  H     -118.890     148.037     591.944
  H     -120.689     146.154     595.254
  H     -120.794     144.070     593.880
  H     -119.971     144.016     590.334
  H     -118.603     142.749     592.760
  H     -118.941     140.643     591.916
  H     -121.459     141.220     590.649
  H     -121.086     139.790     592.715
  H     -120.867     141.297     593.651
  P     -117.879     139.907     589.607
  C     -119.402     137.788     589.300
  O     -118.368     138.440     590.031
  O     -116.508     140.315     590.046
  O     -117.894     139.851     588.006
  H     -116.957     139.706     587.722
  H     -119.589     136.826     589.728
  H     -119.099     137.672     588.280
  H     -120.294     138.377     589.342

 6  7  8  9  10  11  12  13  14  15  16  26  31  32  33  34  35 0
 6-311+G(2d,p)
 ****
 36  37 0
 6-311+G(2d,p)
 ****
 1  2  3  4  5  17  18  19  20  21  22  23  24  25 0
 3-21G
 ****
 27  28  29  30  38  39  40  41  42  43  44  45 0
 3-21G
 ****


