%nproc=1
%NoSave
%Mem=1900MB
#P OB98/GEN NMR

erre ene a

0 1
  C     -314.359     203.906    -184.602
  O     -315.177     204.864    -185.245
  H     -313.660     203.469    -185.318
  H     -313.791     204.400    -183.812
  H     -314.976     203.121    -184.156
  P     -316.073     204.345    -186.471
  C     -318.330     204.518    -185.206
  O     -317.536     204.986    -186.286
  C     -319.069     205.686    -184.560
  O     -318.185     206.312    -183.597
  C     -319.548     206.768    -185.543
  O     -320.967     206.934    -185.445
  C     -318.875     208.044    -185.060
  O     -319.729     209.187    -185.122
  C     -318.482     207.713    -183.625
  N     -317.031     212.228    -181.760
  C     -318.219     211.588    -181.725
  N     -318.514     210.341    -182.147
  C     -317.415     209.730    -182.625
  C     -316.131     210.243    -182.699
  C     -315.958     211.564    -182.256
  N     -314.758     212.237    -182.339
  N     -315.265     209.319    -183.255
  C     -316.027     208.283    -183.550
  N     -317.334     208.492    -183.205
  O     -316.297     202.795    -186.132
  O     -315.465     204.534    -187.820
  H     -320.594     208.910    -184.764
  H     -316.113     202.256    -186.924
  H     -319.047     212.158    -181.313
  H     -315.691     207.382    -184.051
  H     -319.301     207.900    -182.920
  H     -317.992     208.237    -185.681
  H     -319.272     206.544    -186.582
  H     -319.921     205.283    -183.995
  H     -317.686     204.046    -184.456
  H     -314.754     213.219    -182.112
  H     -313.989     211.786    -182.812
  H     -319.036     203.769    -185.581
  P     -321.708     207.552    -186.736
  C     -323.658     205.832    -186.594
  O     -323.269     207.198    -186.596
  O     -321.216     206.598    -187.920
  O     -321.385     208.985    -186.993
  H     -321.240     207.081    -188.768
  H     -324.721     205.764    -186.494
  H     -323.190     205.329    -185.774
  H     -323.356     205.374    -187.513

 6  7  8  9  10  11  12  13  14  15  25  28  32  33  34  35 0
 6-311+G(2d,p)
 ****
 36  39  40 0
 6-311+G(2d,p)
 ****
 1  2  3  4  5  16  17  18  19  20  21  22  23  24 0
 3-21G
 ****
 26  27  29  30  31  37  38  41  42  43  44  45  46  47  48 0
 3-21G
 ****


