%nproc=1
%NoSave
%Mem=1900MB
#P OB98/GEN NMR

erre ene a

0 1
  C       73.825      -6.214     -68.784
  O       73.635      -7.577     -69.105
  H       72.890      -5.676     -68.963
  H       74.606      -5.780     -69.413
  H       74.096      -6.111     -67.730
  P       74.920      -8.531     -69.011
  C       77.206      -8.686     -70.238
  O       75.923      -8.077     -70.176
  C       77.889      -8.307     -71.549
  O       77.247      -8.992     -72.651
  C       77.800      -6.825     -71.889
  O       78.740      -6.041     -71.173
  C       78.088      -6.855     -73.380
  O       79.496      -6.865     -73.649
  C       77.427      -8.173     -73.824
  N       76.168      -7.937     -74.527
  C       76.267      -7.220     -75.716
  O       77.332      -6.805     -76.168
  N       75.085      -6.961     -76.356
  C       73.842      -7.295     -75.906
  O       72.818      -6.981     -76.502
  C       73.797      -8.036     -74.635
  C       74.945      -8.315     -74.010
  O       74.363      -9.944     -69.515
  O       75.537      -8.624     -67.655
  H       74.266     -10.549     -68.757
  H       79.818      -7.745     -73.372
  H       75.136      -6.446     -77.221
  H       72.825      -8.315     -74.248
  H       74.938      -8.850     -73.065
  H       78.093      -8.729     -74.496
  H       77.671      -5.980     -73.875
  H       76.778      -6.460     -71.730
  H       78.937      -8.630     -71.504
  H       77.100      -9.774     -70.195
  H       77.799      -8.357     -69.377
  P       78.223      -4.673     -70.511
  C       77.565      -2.389     -71.639
  O       78.375      -3.554     -71.648
  O       79.412      -4.377     -69.484
  O       76.870      -4.794     -69.898
  H       80.254      -4.763     -69.783
  H       77.819      -1.772     -72.475
  H       77.731      -1.846     -70.732
  H       76.535      -2.670     -71.703

 6  7  8  9  10  11  12  13  14  15  16  27  31  32  33  34  35 0
 6-311+G(2d,p)
 ****
 36  37 0
 6-311+G(2d,p)
 ****
 1  2  3  4  5  17  18  19  20  21  22  23  24  25 0
 3-21G
 ****
 26  28  29  30  38  39  40  41  42  43  44  45 0
 3-21G
 ****


