%nproc=1
%NoSave
%Mem=1900MB
#P OB98/GEN NMR

erre ene a

0 1
  C       99.825    -586.421     227.057
  O      101.198    -586.400     227.425
  P      101.578    -586.939     228.894
  C      102.115    -589.320     227.997
  O      101.306    -588.522     228.852
  C      102.880    -590.365     228.807
  O      103.836    -589.723     229.675
  C      102.012    -591.223     229.716
  O      101.402    -592.294     229.018
  C      103.054    -591.756     230.682
  O      103.776    -592.849     230.081
  C      103.970    -590.544     230.859
  N      103.389    -590.660     235.947
  C      103.629    -591.641     235.045
  N      103.759    -591.533     233.706
  C      103.579    -590.260     233.312
  C      103.292    -589.158     234.112
  C      103.211    -589.393     235.498
  N      102.990    -588.397     236.414
  N      103.173    -588.025     233.347
  C      103.396    -588.419     232.109
  N      103.657    -589.755     232.041
  O      100.387    -586.384     229.797
  O      102.919    -586.514     229.389
  H      103.143    -593.571     229.955
  H      100.681    -586.319     230.734
  H      103.740    -592.635     235.451
  H      103.384    -587.769     231.243
  H      105.027    -590.835     230.929
  H      102.614    -592.141     231.612
  H      101.281    -590.616     230.248
  H      103.440    -591.001     228.100
  H      102.833    -588.680     227.476
  H      103.126    -588.617     237.384
  H      103.059    -587.440     236.096
  H      101.481    -589.810     227.252
  P       99.993    -592.829     229.586
  C       99.194    -590.385     229.158
  O       99.193    -591.506     230.035
  O      100.402    -593.515     230.977
  O       99.274    -593.766     228.675
  H       99.756    -594.192     231.213
  H       98.377    -589.723     229.455
  H       99.044    -590.697     228.129
  H      100.137    -589.847     229.259
  H       99.716    -586.038     226.064
  H       99.264    -585.814     227.737
  H       99.461    -587.427     227.094

 3  4  5  6  7  8  9  10  11  12  22  25  29  30  31  32 0
 6-311+G(2d,p)
 ****
 33  36  37 0
 6-311+G(2d,p)
 ****
 1  2  13  14  15  16  17  18  19  20  21  23  24  26 0
 3-21G
 ****
 27  28  34  35  38  39  40  41  42  43  44  45  46  47  48 0
 3-21G
 ****


