%nproc=1
%NoSave
%Mem=1900MB
#P OB98/GEN NMR

erre ene a

0 1
  C      359.995    -170.733    -398.538
  O      360.442    -171.826    -397.716
  P      359.369    -172.497    -396.734
  C      358.186    -171.689    -394.563
  O      359.378    -171.687    -395.341
  C      358.081    -170.425    -393.687
  O      359.228    -170.332    -392.789
  C      358.042    -169.123    -394.483
  O      357.276    -168.152    -393.754
  C      359.498    -168.690    -394.501
  O      359.638    -167.301    -394.809
  C      359.902    -169.092    -393.075
  N      364.108    -166.918    -391.301
  C      362.803    -166.456    -391.315
  N      362.578    -165.250    -390.732
  N      361.801    -167.122    -391.843
  C      362.172    -168.321    -392.355
  C      363.429    -168.875    -392.413
  C      364.523    -168.118    -391.845
  O      365.705    -168.473    -391.827
  N      363.404    -170.110    -393.038
  C      362.135    -170.289    -393.362
  N      361.340    -169.248    -392.927
  O      360.059    -173.904    -396.351
  O      358.027    -172.711    -397.347
  H      359.248    -166.794    -394.050
  H      359.586    -174.631    -396.791
  H      364.838    -166.354    -390.893
  H      361.738    -171.137    -393.889
  H      359.586    -168.350    -392.336
  H      360.063    -169.266    -395.244
  H      363.297    -164.720    -390.259
  H      357.625    -169.225    -395.508
  H      361.622    -164.923    -390.693
  H      357.186    -170.505    -393.066
  H      358.155    -172.580    -393.920
  H      357.320    -171.776    -395.233
  P      356.350    -167.157    -394.605
  C      356.848    -164.938    -395.859
  O      357.355    -166.176    -395.367
  O      355.681    -166.223    -393.490
  O      355.326    -167.841    -395.459
  H      354.836    -165.863    -393.814
  H      357.163    -164.129    -395.202
  H      355.755    -164.948    -395.922
  H      357.257    -164.761    -396.852
  H      360.808    -170.383    -399.140
  H      359.645    -169.937    -397.914
  H      359.200    -171.065    -399.172

 3  4  5  6  7  8  9  10  11  12  23  26  30  31 0
 6-311+G(2d,p)
 ****
 33  35  36  37  38 0
 6-311+G(2d,p)
 ****
 1  2  13  14  15  16  17  18  19  20  21  22  24  25 0
 3-21G
 ****
 27  28  29  32  34  39  40  41  42  43  44  45  46  47  48  49 0
 3-21G
 ****


