%nproc=1
%NoSave
%Mem=1900MB
#P OB98/GEN NMR

erre ene a

0 1
  C      368.664    -961.291     756.456
  O      369.045    -962.227     755.479
  H      368.940    -960.289     756.112
  H      369.197    -961.493     757.394
  H      367.591    -961.324     756.625
  P      368.649    -963.767     755.746
  C      371.001    -964.865     755.669
  O      369.915    -964.430     756.484
  C      371.907    -965.820     756.449
  O      372.503    -965.101     757.567
  C      371.178    -967.059     757.024
  O      372.080    -968.165     756.969
  C      370.978    -966.673     758.483
  O      370.780    -967.810     759.328
  C      372.277    -965.908     758.736
  N      372.430    -966.091     763.772
  C      372.606    -967.096     762.823
  N      372.840    -968.329     763.313
  N      372.532    -966.885     761.550
  C      372.309    -965.591     761.210
  C      372.126    -964.508     762.037
  C      372.175    -964.754     763.471
  O      372.018    -963.910     764.355
  N      371.908    -963.370     761.325
  C      371.953    -963.756     760.057
  N      372.196    -965.091     759.938
  O      368.694    -964.399     754.272
  O      367.334    -963.984     756.408
  H      369.941    -968.239     759.065
  H      367.804    -964.375     753.867
  H      372.483    -966.301     764.751
  H      371.815    -963.103     759.198
  H      373.137    -966.576     758.868
  H      370.110    -966.011     758.573
  H      372.951    -968.552     764.286
  H      370.251    -967.306     756.508
  H      373.011    -969.068     762.630
  H      372.730    -966.126     755.788
  H      371.591    -963.987     755.360
  H      370.610    -965.371     754.776
  P      371.891    -969.238     755.785
  C      369.783    -970.204     756.982
  O      370.358    -969.697     755.777
  O      372.653    -970.523     756.364
  O      372.456    -968.800     754.476
  H      372.978    -971.073     755.630
  H      368.760    -970.463     756.807
  H      369.836    -969.456     757.745
  H      370.323    -971.073     757.297

 6  7  8  9  10  11  12  13  14  15  26  29  33  34 0
 6-311+G(2d,p)
 ****
 36  38  39  40  41 0
 6-311+G(2d,p)
 ****
 1  2  3  4  5  16  17  18  19  20  21  22  23  24  25 0
 3-21G
 ****
 27  28  30  31  32  35  37  42  43  44  45  46  47 0
 3-21G
 ****
 48  49 0
 3-21G
 ****


