%nproc=1
%NoSave
%Mem=1900MB
#P OB98/GEN NMR

erre ene a

0 1
  C      252.559    -899.272    -870.237
  O      252.200    -897.972    -869.804
  P      252.479    -897.492    -868.290
  C      252.914    -894.932    -868.458
  O      253.501    -896.242    -868.331
  C      252.924    -894.472    -869.955
  O      252.106    -895.362    -870.773
  C      252.376    -893.072    -870.224
  O      253.326    -892.092    -869.807
  C      252.101    -893.132    -871.710
  O      253.312    -892.892    -872.461
  C      251.626    -894.582    -871.898
  N      250.172    -894.682    -872.026
  C      249.608    -894.192    -873.200
  O      250.326    -893.682    -874.064
  N      248.273    -894.312    -873.369
  C      247.511    -894.782    -872.430
  N      246.156    -894.882    -872.665
  C      248.045    -895.272    -871.141
  C      249.399    -895.162    -870.983
  O      252.900    -898.552    -867.358
  O      251.090    -896.832    -867.809
  H      253.633    -891.992    -872.232
  H      251.007    -896.922    -866.858
  H      247.400    -895.622    -870.316
  H      249.857    -895.462    -870.082
  H      252.082    -895.012    -872.807
  H      251.368    -892.372    -872.003
  H      251.448    -892.952    -869.667
  H      253.956    -894.562    -870.310
  H      245.835    -894.582    -873.561
  H      253.466    -894.192    -867.879
  H      245.506    -895.252    -871.986
  H      251.866    -894.972    -868.119
  P      253.565    -891.782    -868.225
  C      255.992    -891.032    -868.230
  O      255.089    -892.082    -867.905
  O      252.556    -892.452    -867.301
  O      253.462    -890.192    -868.162
  H      253.098    -889.942    -867.275
  H      256.910    -891.152    -867.590
  H      255.565    -890.022    -867.991
  H      256.280    -891.062    -869.275
  H      252.291    -899.392    -871.266
  H      252.042    -900.000    -869.647
  H      253.615    -899.407    -870.125

 3  4  5  6  7  8  9  10  11  12  13  23  27  28  29  30  32 0
 6-311+G(2d,p)
 ****
 34  35 0
 6-311+G(2d,p)
 ****
 1  2  14  15  16  17  18  19  20  21  22  24  25  26 0
 3-21G
 ****
 31  33  36  37  38  39  40  41  42  43  44  45  46 0
 3-21G
 ****


