%nproc=1
%NoSave
%Mem=1900MB
#P OB98/GEN NMR

erre ene a

0 1
  C     -563.055     488.439      29.823
  O     -563.817     489.183      30.781
  P     -565.192     489.834      30.252
  C     -564.768     491.688      32.025
  O     -565.714     490.852      31.375
  C     -565.422     492.389      33.221
  O     -566.755     492.848      32.912
  C     -565.565     491.492      34.444
  O     -564.325     491.309      35.097
  C     -566.597     492.273      35.249
  O     -565.965     493.368      35.946
  C     -567.514     492.836      34.153
  N     -572.529     492.589      35.124
  C     -571.597     493.509      35.448
  N     -570.272     493.497      35.160
  C     -569.960     492.411      34.435
  C     -570.803     491.387      34.025
  C     -572.157     491.514      34.407
  N     -573.113     490.568      34.081
  N     -570.121     490.436      33.300
  C     -568.866     490.859      33.299
  N     -568.727     492.048      33.957
  O     -566.224     488.613      30.321
  O     -565.095     490.403      28.876
  H     -566.673     494.006      36.176
  H     -566.446     488.314      29.412
  H     -571.942     494.362      36.033
  H     -568.038     490.341      32.829
  H     -567.825     493.866      34.354
  H     -567.112     491.666      35.998
  H     -565.982     490.518      34.153
  H     -564.802     493.267      33.469
  H     -564.382     492.445      31.330
  H     -574.046     490.685      34.460
  H     -572.826     489.712      33.626
  H     -563.916     491.077      32.342
  P     -563.581     489.895      34.903
  C     -562.910     489.410      37.339
  O     -562.482     489.888      36.084
  O     -562.709     490.162      33.604
  O     -564.490     488.705      34.866
  H     -562.249     491.021      33.639
  H     -562.053     489.434      38.031
  H     -563.267     488.382      37.255
  H     -563.695     490.054      37.736
  H     -562.170     488.059      30.289
  H     -562.783     489.079      29.009
  H     -563.643     487.624      29.455

 3  4  5  6  7  8  9  10  11  12  22  25  29  30  31  32 0
 6-311+G(2d,p)
 ****
 33  36  37 0
 6-311+G(2d,p)
 ****
 1  2  13  14  15  16  17  18  19  20  21  23  24  26 0
 3-21G
 ****
 27  28  34  35  38  39  40  41  42  43  44  45  46  47  48 0
 3-21G
 ****


