%nproc=1
%NoSave
%Mem=1900MB
#P OB98/GEN NMR

erre ene a

0 1
  C      309.926     449.491    -271.836
  O      309.349     448.454    -271.063
  P      309.874     448.276    -269.547
  C      311.853     446.604    -269.509
  O      310.447     446.780    -269.442
  C      312.217     445.142    -269.837
  O      311.953     444.324    -268.663
  C      311.424     444.558    -271.007
  O      312.300     443.691    -271.740
  C      310.357     443.712    -270.328
  O      309.885     442.672    -271.191
  C      311.102     443.238    -269.077
  N      310.205     442.834    -268.009
  C      310.239     441.481    -267.619
  O      310.956     440.681    -268.225
  N      309.425     441.068    -266.590
  C      308.563     441.895    -266.083
  N      307.786     441.433    -265.057
  C      308.408     443.295    -266.544
  C      309.262     443.689    -267.488
  O      308.508     448.215    -268.715
  O      310.780     449.363    -269.080
  H      309.354     443.076    -271.912
  H      308.625     448.598    -267.821
  H      307.657     443.932    -266.103
  H      309.234     444.710    -267.880
  H      311.761     442.377    -269.321
  H      309.508     444.341    -270.046
  H      311.020     445.316    -271.687
  H      313.288     445.095    -270.033
  H      307.900     440.474    -264.774
  H      312.299     446.841    -268.542
  H      307.092     442.009    -264.600
  H      312.280     447.278    -270.261
  P      313.016     444.278    -273.051
  C      311.496     442.957    -274.644
  O      312.812     443.158    -274.175
  O      314.566     444.090    -272.685
  O      312.726     445.686    -273.442
  H      315.121     444.479    -273.391
  H      311.517     442.273    -275.503
  H      311.048     443.906    -274.974
  H      310.876     442.513    -273.858
  H      309.488     449.494    -272.812
  H      310.981     449.330    -271.918
  H      309.745     450.433    -271.361

 3  4  5  6  7  8  9  10  11  12  13  21  23  27  28  29  30  32 0
 6-311+G(2d,p)
 ****
 34  35 0
 6-311+G(2d,p)
 ****
 1  2  14  15  16  17  18  19  20  22  24  25  26 0
 3-21G
 ****
 31  33  36  37  38  39  40  41  42  43  44  45  46 0
 3-21G
 ****


