%nproc=1
%NoSave
%Mem=1900MB
#P OB98/GEN NMR

erre ene a

0 1
  C      360.482    -683.737     582.966
  O      360.867    -684.956     583.569
  H      359.537    -683.873     582.429
  H      360.333    -682.988     583.749
  H      361.257    -683.377     582.285
  P      361.307    -686.142     582.582
  C      358.892    -687.112     582.686
  O      359.957    -686.632     581.863
  C      357.964    -688.022     581.875
  O      358.737    -689.134     581.348
  C      356.814    -688.608     582.707
  O      355.632    -688.647     581.905
  C      357.276    -690.028     583.003
  O      356.198    -690.914     583.251
  C      358.083    -690.351     581.744
  N      358.676    -695.233     583.145
  C      357.573    -694.486     582.901
  N      357.501    -693.191     582.527
  C      358.733    -692.683     582.353
  C      359.950    -693.317     582.564
  C      359.892    -694.652     582.995
  N      361.005    -695.404     583.275
  N      360.992    -692.443     582.320
  C      360.423    -691.307     581.973
  N      359.055    -691.400     581.982
  O      361.641    -687.333     583.605
  O      362.449    -685.846     581.675
  H      355.615    -690.916     582.471
  H      362.531    -687.192     583.982
  H      356.618    -695.002     583.033
  H      360.943    -690.398     581.714
  H      357.440    -690.687     580.912
  H      357.933    -690.026     583.883
  H      356.616    -688.047     583.616
  H      357.584    -687.462     581.019
  H      358.324    -686.254     583.071
  H      360.875    -696.333     583.631
  H      361.918    -694.972     583.224
  H      359.314    -687.672     583.529
  P      354.530    -687.509     582.187
  C      352.331    -688.115     583.437
  O      353.729    -687.903     583.525
  O      353.452    -687.747     581.018
  O      355.076    -686.127     582.156
  H      353.255    -686.900     580.583
  H      351.947    -688.368     584.403
  H      352.134    -688.915     582.755
  H      351.856    -687.222     583.087

 6  7  8  9  10  11  12  13  14  15  25  28  32  33  34  35 0
 6-311+G(2d,p)
 ****
 36  39  40 0
 6-311+G(2d,p)
 ****
 1  2  3  4  5  16  17  18  19  20  21  22  23  24 0
 3-21G
 ****
 26  27  29  30  31  37  38  41  42  43  44  45  46  47 0
 3-21G
 ****
 48 0
 3-21G
 ****


