%nproc=1
%NoSave
%Mem=1900MB
#P OB98/GEN NMR

erre ene a

0 1
  C     -113.480      75.820    -308.696
  O     -114.559      75.939    -307.784
  H     -113.133      74.783    -308.694
  H     -112.659      76.472    -308.390
  H     -113.809      76.082    -309.708
  P     -115.241      77.387    -307.672
  C     -117.263      77.263    -309.320
  O     -116.804      77.164    -307.978
  C     -118.789      77.130    -309.369
  O     -119.165      75.848    -308.777
  C     -119.526      78.223    -308.573
  O     -120.803      78.457    -309.205
  C     -119.752      77.536    -307.235
  O     -120.736      78.214    -306.489
  C     -120.104      76.131    -307.721
  N     -121.460      75.019    -302.927
  C     -121.768      76.061    -303.735
  N     -121.372      76.281    -305.005
  C     -120.600      75.267    -305.442
  C     -120.198      74.145    -304.736
  C     -120.659      74.037    -303.412
  N     -120.331      72.991    -302.578
  N     -119.380      73.345    -305.518
  C     -119.297      73.972    -306.675
  N     -120.016      75.138    -306.676
  O     -114.704      78.148    -308.976
  O     -114.950      78.143    -306.418
  H     -120.876      77.786    -305.620
  H     -113.891      78.647    -308.755
  H     -122.417      76.821    -303.303
  H     -118.728      73.644    -307.539
  H     -121.118      76.081    -308.144
  H     -118.833      77.529    -306.638
  H     -118.975      79.164    -308.508
  H     -119.121      77.103    -310.415
  H     -116.799      76.464    -309.908
  H     -116.971      78.234    -309.734
  H     -120.678      73.009    -301.632
  H     -119.708      72.275    -302.913
  P     -121.102      79.899    -309.855
  C     -120.097      80.174    -312.247
  O     -121.208      79.782    -311.452
  O     -119.696      80.648    -309.660
  O     -122.200      80.685    -309.204
  H     -119.848      81.548    -309.314
  H     -120.332      80.034    -313.282
  H     -119.247      79.578    -311.990
  H     -119.876      81.206    -312.068

 6  7  8  9  10  11  12  13  14  15  25  28  32  33  34  35 0
 6-311+G(2d,p)
 ****
 36  37  40 0
 6-311+G(2d,p)
 ****
 1  2  3  4  5  16  17  18  19  20  21  22  23  24 0
 3-21G
 ****
 26  27  29  30  31  38  39 41  42  43  44  45  46  47  48 0
 3-21G
 ****


