%nproc=1
%NoSave
%Mem=1900MB
#P OB98/GEN NMR

erre ene a

0 1
  C      -21.443     -61.766      41.558
  O      -21.965     -62.539      40.499
  H      -22.276     -61.345      42.126
  H      -20.835     -60.946      41.169
  H      -20.844     -62.391      42.227
  P      -20.946     -63.222      39.467
  C      -20.847     -65.321      40.968
  O      -21.085     -64.810      39.660
  C      -21.533     -66.683      41.136
  O      -22.958     -66.482      40.968
  C      -21.063     -67.710      40.097
  O      -20.620     -68.932      40.684
  C      -22.227     -67.767      39.115
  O      -22.336     -68.986      38.410
  C      -23.437     -67.420      39.987
  N      -24.561     -66.856      39.241
  C      -25.605     -67.716      38.912
  O      -25.661     -68.907      39.210
  N      -26.636     -67.151      38.205
  C      -26.714     -65.854      37.794
  O      -27.666     -65.405      37.166
  C      -25.568     -65.002      38.147
  C      -24.560     -65.534      38.842
  O      -19.546     -62.710      39.509
  O      -21.620     -62.976      38.035
  H      -22.294     -69.708      39.072
  H      -21.133     -62.272      37.564
  H      -27.405     -67.760      37.974
  H      -25.592     -63.970      37.826
  H      -23.700     -64.933      39.122
  H      -23.800     -68.306      40.511
  H      -22.088     -66.976      38.368
  H      -20.172     -67.349      39.569
  H      -21.367     -67.036      42.160
  H      -21.249     -64.601      41.688
  H      -19.769     -65.426      41.130
  P      -19.142     -69.520      40.575
  C      -17.880     -67.987      42.300
  O      -18.390     -69.272      41.963
  O      -18.393     -69.173      39.332
  O      -19.367     -71.117      40.574
  H      -18.652     -71.494      40.023
  H      -17.415     -68.029      43.263
  H      -18.682     -67.279      42.322
  H      -17.159     -67.687      41.569

 6  7  8  9  10  11  12  13  14  15  16  26  31  32  33  34  35 0
 6-311+G(2d,p)
 ****
 36  37 0
 6-311+G(2d,p)
 ****
 1  2  3  4  5  17  18  19  20  21  22  23  24  25 0
 3-21G
 ****
 27  28  29  30  38  39  40  41  42  43  44  45 0
 3-21G
 ****


