%nproc=1
%NoSave
%Mem=1900MB
#P OB98/GEN NMR

erre ene a

0 1
  C     -162.484     262.347     371.480
  O     -163.749     262.943     371.703
  H     -162.243     262.430     370.417
  H     -162.497     261.290     371.758
  H     -161.720     262.875     372.054
  P     -164.457     262.708     373.126
  C     -164.600     265.128     374.005
  O     -165.307     264.043     373.405
  C     -165.510     266.343     374.194
  O     -165.957     266.850     372.918
  C     -166.784     266.048     374.968
  O     -166.591     265.718     376.322
  C     -167.647     267.254     374.614
  O     -167.347     268.392     375.420
  C     -167.221     267.514     373.147
  N     -168.235     267.087     372.190
  C     -168.976     268.101     371.593
  O     -168.824     269.299     371.853
  N     -169.930     267.700     370.703
  C     -170.239     266.404     370.396
  O     -171.127     266.111     369.598
  C     -169.452     265.378     371.086
  C     -168.499     265.757     371.940
  O     -163.538     262.325     374.248
  O     -165.587     261.618     372.815
  H     -167.823     269.149     375.032
  H     -165.926     261.211     373.651
  H     -170.467     268.419     370.245
  H     -169.683     264.339     370.878
  H     -167.900     265.013     372.463
  H     -167.037     268.585     372.992
  H     -168.712     267.045     374.730
  H     -167.269     265.177     374.513
  H     -164.923     267.133     374.677
  H     -163.773     265.396     373.340
  H     -164.190     264.806     374.969
  P     -167.110     264.362     376.989
  C     -165.209     264.391     378.785
  O     -166.603     264.314     378.507
  O     -166.981     263.123     376.165
  O     -168.684     264.670     377.170
  H     -169.158     263.825     377.043
  H     -165.053     264.345     379.843
  H     -164.820     265.314     378.407
  H     -164.706     263.573     378.314

 6  7  8  9  10  11  12  13  14  15  16  26  31  32  33  34  35 0
 6-311+G(2d,p)
 ****
 36  37 0
 6-311+G(2d,p)
 ****
 1  2  3  4  5  17  18  19  20  21  22  23  24  25 0
 3-21G
 ****
 27  28  29  30  38  39  40  41  42  43  44  45 0
 3-21G
 ****


