%nproc=1
%NoSave
%Mem=1900MB
#P OB98/GEN NMR

erre ene a

0 1
  C      541.268     -10.584     245.567
  O      541.171     -11.985     245.397
  H      542.094     -10.342     246.240
  H      541.455     -10.124     244.594
  H      540.331     -10.189     245.971
  P      540.934     -12.859     246.723
  C      542.401     -14.908     246.097
  O      541.082     -14.403     246.297
  C      542.394     -15.951     244.978
  O      541.484     -17.019     245.354
  C      541.963     -15.414     243.604
  O      542.994     -15.645     242.637
  C      540.755     -16.261     243.228
  O      540.737     -16.633     241.850
  C      540.881     -17.478     244.140
  N      537.685     -21.187     242.714
  C      539.023     -21.055     242.569
  N      539.833     -20.098     243.061
  C      539.125     -19.216     243.800
  C      537.768     -19.238     244.062
  C      537.026     -20.273     243.458
  N      535.658     -20.374     243.558
  N      537.401     -18.162     244.851
  C      538.522     -17.485     245.033
  N      539.584     -18.072     244.398
  O      539.362     -12.698     246.991
  O      541.742     -12.450     247.905
  H      541.631     -16.952     241.633
  H      539.214     -12.477     247.932
  H      539.510     -21.822     241.964
  H      538.609     -16.542     245.571
  H      541.530     -18.255     243.705
  H      539.841     -15.692     243.447
  H      541.706     -14.350     243.627
  H      543.396     -16.395     244.916
  H      542.753     -15.381     247.022
  H      535.198     -21.076     243.009
  H      535.153     -19.631     244.027
  H      543.066     -14.078     245.852
  P      544.185     -14.558     242.585
  C      544.557     -15.040     240.052
  O      545.134     -14.947     241.349
  O      545.070     -14.937     243.865
  O      543.716     -13.142     242.626
  H      545.548     -14.147     244.183
  H      545.313     -15.306     239.343
  H      544.131     -14.096     239.782
  H      543.792     -15.788     240.055

 6  7  8  9  10  11  12  13  14  15  25  28  32  33  34  35 0
 6-311+G(2d,p)
 ****
 36  39  40 0
 6-311+G(2d,p)
 ****
 1  2  3  4  5  16  17  18  19  20  21  22  23  24 0
 3-21G
 ****
 26  27  29  30  31  37  38  41  42  43  44  45  46  47  48 0
 3-21G
 ****


