%nproc=1
%NoSave
%Mem=1900MB
#P OB98/GEN NMR

erre ene a

0 1
  C      -20.843     -77.648     -33.938
  O      -20.161     -76.673     -34.703
  H      -20.907     -78.569     -34.525
  H      -21.854     -77.317     -33.694
  H      -20.288     -77.858     -33.020
  P      -20.179     -75.155     -34.180
  C      -18.843     -73.943     -32.337
  O      -19.400     -75.180     -32.773
  C      -19.183     -73.668     -30.872
  O      -20.589     -73.376     -30.720
  C      -18.928     -74.844     -29.943
  O      -17.570     -75.188     -29.786
  C      -19.744     -74.459     -28.719
  O      -19.047     -73.556     -27.863
  C      -20.955     -73.746     -29.371
  N      -22.161     -74.565     -29.345
  C      -23.011     -74.364     -28.264
  O      -22.778     -73.568     -27.354
  N      -24.138     -75.140     -28.240
  C      -24.464     -76.106     -29.146
  O      -25.481     -76.783     -29.056
  C      -23.507     -76.301     -30.246
  C      -22.416     -75.532     -30.297
  O      -21.530     -74.509     -34.114
  O      -19.151     -74.404     -35.148
  H      -19.630     -73.382     -27.098
  H      -19.257     -73.423     -35.089
  H      -24.776     -74.998     -27.472
  H      -23.726     -77.067     -30.977
  H      -21.695     -75.655     -31.102
  H      -21.171     -72.808     -28.842
  H      -20.020     -75.328     -28.118
  H      -19.413     -75.732     -30.371
  H      -18.624     -72.781     -30.555
  H      -19.267     -73.148     -32.960
  H      -17.757     -73.961     -32.476
  P      -17.068     -76.633     -29.336
  C      -17.287     -79.044     -30.322
  O      -17.835     -77.736     -30.211
  O      -16.936     -76.867     -27.866
  O      -15.583     -76.674     -29.972
  H      -15.024     -77.192     -29.359
  H      -17.923     -79.646     -30.937
  H      -17.213     -79.483     -29.349
  H      -16.314     -78.987     -30.763

 6  7  8  9  10  11  12  13  14  15  16  26  31  32  33  34  35 0
 6-311+G(2d,p)
 ****
 36  37 0
 6-311+G(2d,p)
 ****
 1  2  3  4  5  17  18  19  20  21  22  23  24  25 0
 3-21G
 ****
 27  28  29  30  38  39  40  41  42  43  44  45 0
 3-21G
 ****


