%nproc=1
%NoSave
%Mem=1900MB
#P OB98/GEN NMR

erre ene a

0 1
  C     1668.918    2174.164    -896.810
  O     1670.094    2174.080    -897.570
  P     1670.257    2175.074    -898.820
  C     1672.767    2175.053    -898.000
  O     1671.860    2175.114    -899.080
  C     1674.052    2175.765    -898.350
  O     1673.744    2177.146    -898.780
  C     1675.011    2175.870    -897.200
  O     1675.756    2174.687    -896.960
  C     1675.907    2177.060    -897.640
  O     1676.991    2176.596    -898.510
  C     1674.927    2177.892    -898.480
  N     1674.563    2179.159    -897.810
  C     1675.614    2180.016    -897.500
  O     1676.797    2179.719    -897.820
  N     1675.366    2181.187    -896.860
  C     1674.130    2181.474    -896.530
  N     1673.923    2182.653    -895.880
  C     1673.007    2180.567    -896.790
  C     1673.314    2179.462    -897.430
  O     1669.976    2176.535    -898.130
  O     1669.383    2174.783    -900.000
  H     1677.566    2177.352    -898.630
  H     1669.630    2177.155    -898.790
  H     1671.956    2180.856    -896.490
  H     1672.525    2178.754    -897.670
  H     1675.372    2178.155    -899.440
  H     1676.368    2177.590    -896.820
  H     1674.485    2176.195    -896.260
  H     1674.525    2175.272    -899.210
  H     1674.735    2183.254    -895.670
  H     1673.035    2173.961    -897.870
  H     1672.980    2182.996    -895.590
  H     1672.330    2175.434    -897.080
  P     1676.118    2174.269    -895.480
  C     1677.044    2172.210    -896.600
  O     1677.226    2173.132    -895.610
  O     1674.848    2173.430    -895.010
  O     1676.403    2175.375    -894.500
  H     1674.834    2173.208    -894.060
  H     1677.927    2171.575    -896.750
  H     1676.857    2172.698    -897.580
  H     1676.208    2171.503    -896.400
  H     1668.953    2173.446    -896.018
  H     1668.074    2173.964    -897.436
  H     1668.830    2175.147    -896.396

 3  4  5  6  7  8  9  10  11  12  13  21  23  27  28  29  30  32 0
 6-311+G(2d,p)
 ****
 34  35 0
 6-311+G(2d,p)
 ****
 1  2  14  15  16  17  18  19  20  22  24  25  26 0
 3-21G
 ****
 31  33  36  37  38  39  40  41  42  43  44  45  46 0
 3-21G
 ****


