%nproc=1
%NoSave
%Mem=1900MB
#P OB98/GEN NMR

erre ene a

0 1
  C      183.689    -241.054     583.933
  O      182.705    -240.967     582.923
  P      181.448    -239.991     583.117
  C      179.551    -239.700     584.825
  O      180.565    -240.565     584.330
  C      179.238    -240.031     586.281
  O      180.455    -240.253     587.022
  C      178.503    -238.921     587.025
  O      177.138    -238.888     586.663
  C      178.771    -239.312     588.476
  O      177.853    -240.336     588.901
  C      180.199    -239.879     588.393
  N      182.247    -237.610     592.482
  C      181.155    -238.391     592.333
  N      180.651    -238.930     591.200
  C      181.385    -238.560     590.137
  C      182.504    -237.738     590.127
  C      182.955    -237.271     591.375
  N      184.100    -236.527     591.542
  N      182.965    -237.568     588.833
  C      182.132    -238.260     588.082
  N      181.201    -238.932     588.836
  O      180.683    -239.681     581.869
  O      182.091    -238.660     583.731
  H      176.958    -239.949     588.877
  H      181.920    -237.910     583.130
  H      180.617    -238.627     593.247
  H      182.171    -238.332     587.004
  H      180.316    -240.784     588.998
  H      178.659    -238.475     589.166
  H      178.979    -237.954     586.824
  H      178.656    -240.961     586.300
  H      178.653    -239.832     584.208
  H      184.412    -236.368     592.488
  H      184.786    -236.520     590.790
  H      179.884    -238.660     584.738
  P      176.220    -237.657     587.126
  C      175.700    -236.480     589.348
  O      176.253    -237.628     588.728
  O      174.858    -237.604     586.511
  O      177.090    -236.369     586.728
  H      176.492    -235.635     586.489
  H      176.423    -235.657     589.284
  H      175.512    -236.700     590.392
  H      174.766    -236.187     588.861
  H      184.446    -241.748     583.634
  H      183.237    -241.389     584.843
  H      184.129    -240.091     584.087

 3  4  5  6  7  8  9  10  11  12  22  25  29  30  31  32 0
 6-311+G(2d,p)
 ****
 33  36  37 0
 6-311+G(2d,p)
 ****
 1  2  13  14  15  16  17  18  19  20  21  23  24  26 0
 3-21G
 ****
 27  28  34  35  38  39  40  41  42  43  44  45  46  47  48 0
 3-21G
 ****


