%nproc=1
%NoSave
%Mem=1900MB
#P OB98/GEN NMR

erre ene a

0 1
  C     -173.322    -549.938    -213.706
  O     -173.559    -551.244    -213.187
  P     -174.335    -551.374    -211.784
  C     -176.466    -551.918    -213.137
  O     -175.913    -551.192    -212.043
  C     -177.927    -552.306    -212.864
  O     -178.022    -552.824    -211.510
  C     -178.930    -551.138    -212.916
  O     -179.535    -550.840    -214.176
  C     -180.042    -551.651    -212.012
  O     -180.915    -552.519    -212.753
  C     -179.304    -552.447    -210.943
  N     -181.553    -550.788    -206.654
  C     -182.030    -551.518    -207.701
  N     -181.370    -551.891    -208.803
  C     -180.070    -551.503    -208.764
  C     -179.474    -550.751    -207.764
  C     -180.267    -550.373    -206.674
  N     -179.797    -549.629    -205.616
  N     -178.136    -550.516    -208.075
  C     -177.957    -551.090    -209.260
  N     -179.106    -551.708    -209.705
  O     -173.773    -550.576    -210.652
  O     -174.218    -552.949    -211.472
  H     -180.339    -553.209    -213.142
  H     -174.084    -553.088    -210.519
  H     -183.071    -551.820    -207.651
  H     -177.033    -551.081    -209.813
  H     -179.819    -553.379    -210.686
  H     -180.667    -550.845    -211.618
  H     -178.491    -550.218    -212.493
  H     -178.237    -553.097    -213.545
  H     -175.886    -552.820    -213.336
  H     -180.451    -549.375    -204.893
  H     -178.850    -549.282    -205.644
  H     -176.372    -551.280    -214.024
  P     -179.402    -549.384    -214.839
  C     -177.386    -550.239    -216.284
  O     -177.886    -549.285    -215.367
  O     -179.831    -548.247    -213.966
  O     -180.254    -549.528    -216.181
  H     -179.854    -550.125    -216.847
  H     -176.439    -549.900    -216.677
  H     -178.091    -550.410    -217.114
  H     -177.215    -551.199    -215.756
  H     -172.800    -550.014    -214.637
  H     -172.731    -549.380    -213.010
  H     -174.257    -549.440    -213.860

 3  4  5  6  7  8  9  10  11  12  22  25  29  30  31  32 0
 6-311+G(2d,p)
 ****
 33  36  37 0
 6-311+G(2d,p)
 ****
 1  2  13  14  15  16  17  18  19  20  21  23  24  26 0
 3-21G
 ****
 27  28  34  35  38  39  40  41  42  43  44  45  46  47  48 0
 3-21G
 ****


