%nproc=1
%NoSave
%Mem=1900MB
#P OB98/GEN NMR

erre ene a

0 1
  C     -891.750     214.522    -890.990
  O     -891.900     215.450    -892.070
  P     -890.550     216.104    -892.650
  C     -890.550     215.367    -895.160
  O     -890.010     215.160    -893.840
  C     -891.260     214.099    -895.620
  O     -892.540     213.895    -894.930
  C     -891.630     214.126    -897.110
  O     -890.470     213.879    -897.900
  C     -892.660     212.988    -897.160
  O     -892.010     211.708    -897.180
  C     -893.410     213.205    -895.840
  N     -898.410     212.822    -896.890
  C     -897.430     211.907    -896.840
  N     -896.140     212.087    -896.550
  C     -895.860     213.377    -896.290
  C     -896.760     214.446    -896.320
  C     -898.110     214.132    -896.640
  N     -899.080     215.066    -896.720
  N     -896.140     215.628    -896.000
  C     -894.840     215.278    -895.830
  N     -894.670     213.933    -895.980
  O     -889.480     215.854    -891.470
  O     -890.700     217.560    -892.970
  H     -891.530     211.612    -896.330
  H     -889.290     216.711    -891.030
  H     -897.750     210.875    -897.030
  H     -894.070     215.980    -895.570
  H     -893.670     212.242    -895.350
  H     -893.300     213.064    -898.050
  H     -892.080     215.072    -897.380
  H     -890.630     213.231    -895.390
  H     -889.760     215.624    -895.860
  H     -900.000     214.775    -897.030
  H     -898.860     216.058    -896.620
  H     -891.250     216.209    -895.120
  P     -889.720     215.151    -898.520
  C     -887.210     214.573    -898.490
  O     -888.270     215.183    -897.790
  O     -890.510     216.375    -897.810
  O     -889.680     215.213    -900.000
  H     -890.600     216.221    -896.830
  H     -886.310     214.669    -897.890
  H     -887.080     215.078    -899.460
  H     -887.440     213.519    -898.650
  H     -892.713     214.159    -890.695
  H     -891.284     215.012    -890.161
  H     -891.141     213.701    -891.307

 3  4  5  6  7  8  9  10  11  12  22  25  29  30  31  32 0
 6-311+G(2d,p)
 ****
 33  36  37 0
 6-311+G(2d,p)
 ****
 1  2  13  14  15  16  17  18  19  20  21  23  24  26 0
 3-21G
 ****
 27  28  34  35  38  39  40  41  42  43  44  45  46  47  48 0
 3-21G
 ****


