%nproc=1
%NoSave
%Mem=1900MB
#P OB98/GEN NMR

erre ene a

0 1
  C       60.702    -173.903      -1.684
  O       61.209    -173.290      -2.852
  H       59.808    -174.486      -1.920
  H       61.463    -174.576      -1.279
  H       60.463    -173.144      -0.932
  P       60.226    -172.285      -3.626
  C       58.536    -174.104      -4.404
  O       59.540    -173.171      -4.777
  C       58.769    -175.418      -5.142
  O       57.849    -176.427      -4.665
  C       58.540    -175.327      -6.648
  O       59.662    -174.804      -7.338
  C       58.316    -176.790      -6.988
  O       59.576    -177.484      -7.010
  C       57.468    -177.260      -5.794
  N       53.151    -179.807      -6.835
  C       54.417    -180.228      -6.619
  N       55.506    -179.487      -6.327
  C       55.191    -178.185      -6.254
  C       53.945    -177.609      -6.443
  C       52.889    -178.482      -6.754
  N       51.603    -178.055      -7.006
  N       54.020    -176.235      -6.309
  C       55.284    -175.994      -6.025
  N       56.037    -177.137      -6.013
  O       61.220    -171.337      -4.448
  O       59.264    -171.526      -2.774
  H       60.095    -177.110      -7.747
  H       60.745    -170.550      -4.777
  H       54.576    -181.299      -6.694
  H       55.702    -175.014      -5.833
  H       57.668    -178.303      -5.521
  H       57.856    -176.929      -7.970
  H       57.631    -174.762      -6.882
  H       59.787    -175.763      -4.919
  H       57.554    -173.700      -4.673
  H       50.953    -178.737      -7.365
  H       51.430    -177.064      -7.094
  H       58.574    -174.268      -3.323
  P       59.474    -173.403      -8.103
  C       58.078    -174.706      -9.865
  O       59.117    -173.763      -9.627
  O       60.969    -172.843      -8.197
  O       58.551    -172.443      -7.426
  H       60.979    -171.868      -8.162
  H       57.955    -174.843     -10.919
  H       57.164    -174.343      -9.444
  H       58.334    -175.641      -9.411

 6  7  8  9  10  11  12  13  14  15  25  28  32  33  34  35 0
 6-311+G(2d,p)
 ****
 36  39  40 0
 6-311+G(2d,p)
 ****
 1  2  3  4  5  16  17  18  19  20  21  22  23  24 0
 3-21G
 ****
 26  27  29  30  31  37  38  41  42  43  44  45  46  47 0
 3-21G
 ****
 48 0
 3-21G
 ****


