%nproc=1
%NoSave
%Mem=1900MB
#P OB98/GEN NMR

erre ene a

0 1
  C     -169.005    -372.281     -79.389
  O     -169.177    -371.222     -80.307
  P     -169.463    -371.519     -81.857
  C     -167.272    -370.688     -82.943
  O     -168.642    -370.396     -82.665
  C     -166.594    -369.496     -83.619
  O     -167.243    -369.177     -84.863
  C     -166.620    -368.214     -82.792
  O     -165.657    -368.265     -81.757
  C     -166.349    -367.167     -83.865
  O     -164.942    -367.051     -84.135
  C     -167.090    -367.757     -85.086
  N     -168.375    -367.105     -85.326
  C     -168.366    -366.077     -86.280
  O     -167.320    -365.751     -86.837
  N     -169.544    -365.419     -86.539
  C     -170.620    -365.739     -85.889
  N     -171.750    -365.041     -86.186
  C     -170.660    -366.792     -84.856
  C     -169.511    -367.426     -84.626
  O     -170.899    -371.655     -82.228
  O     -168.608    -372.849     -82.132
  H     -164.535    -366.709     -83.315
  H     -169.039    -373.646     -81.733
  H     -171.577    -367.014     -84.330
  H     -169.450    -368.212     -83.878
  H     -166.478    -367.656     -85.994
  H     -166.703    -366.177     -83.570
  H     -167.626    -368.063     -82.379
  H     -165.554    -369.780     -83.837
  H     -171.673    -364.303     -86.878
  H     -167.235    -371.551     -83.614
  H     -172.629    -365.181     -85.714
  H     -166.763    -370.952     -82.011
  P     -166.066    -368.815     -80.312
  C     -165.386    -366.593     -79.210
  O     -165.218    -368.002     -79.222
  O     -166.048    -370.301     -80.159
  O     -167.552    -368.246     -80.103
  H     -168.112    -368.952     -79.740
  H     -165.036    -366.212     -78.249
  H     -166.432    -366.326     -79.345
  H     -164.782    -366.155     -80.011
  H     -168.825    -371.881     -78.413
  H     -168.171    -372.880     -79.688
  H     -169.889    -372.884     -79.370

 3  4  5  6  7  8  9  10  11  12  13  23  27  28  29  30  32 0
 6-311+G(2d,p)
 ****
 34  35 0
 6-311+G(2d,p)
 ****
 1  2  14  15  16  17  18  19  20  21  22  24  25  26 0
 3-21G
 ****
 31  33  36  37  38  39  40  41  42  43  44  45  46 0
 3-21G
 ****


