%nproc=1
%NoSave
%Mem=1900MB
#P OB98/GEN NMR

erre ene a

0 1
  C        0.376     358.416     247.788
  O       -0.027     357.082     247.453
  P       -1.044     356.215     248.342
  C       -3.622     356.313     248.589
  O       -2.510     356.353     247.699
  C       -4.939     356.307     247.812
  O       -5.090     357.538     247.064
  C       -5.070     355.215     246.758
  O       -5.283     353.936     247.328
  C       -6.240     355.738     245.927
  O       -7.498     355.372     246.511
  C       -6.046     357.265     246.014
  N       -5.622     357.854     244.753
  C       -6.634     358.269     243.882
  O       -7.815     358.056     244.154
  N       -6.276     358.899     242.715
  C       -5.023     359.008     242.398
  N       -4.730     359.657     241.239
  C       -3.930     358.462     243.225
  C       -4.297     357.906     244.377
  O       -0.999     356.534     249.800
  O       -0.648     354.689     248.072
  H       -0.905     354.143     248.840
  H       -7.522     354.394     246.542
  H       -2.902     358.538     242.902
  H       -3.557     357.493     245.054
  H       -6.977     357.745     246.339
  H       -6.229     355.343     244.905
  H       -4.163     355.200     246.139
  H       -5.762     356.237     248.536
  H       -5.503     360.029     240.700
  H       -3.589     357.207     249.222
  H       -3.787     359.817     240.912
  H       -3.538     355.429     249.230
  P       -4.226     352.788     246.957
  C       -1.959     351.949     247.905
  O       -3.012     352.889     247.997
  O       -3.589     353.294     245.577
  O       -4.818     351.426     246.812
  H       -3.447     352.534     244.983
  H       -1.047     352.403     248.297
  H       -1.783     351.639     246.872
  H       -2.205     351.072     248.510
  H        1.055     358.780     247.046
  H        0.859     358.414     248.743
  H       -0.485     359.050     247.826

 3  4  5  6  7  8  9  10  11  12  13  24  27  28  29  30  32 0
 6-311+G(2d,p)
 ****
 34  35 0
 6-311+G(2d,p)
 ****
 1  2  14  15  16  17  18  19  20  21  22  23  25  26 0
 3-21G
 ****
 31  33  36  37  38  39  40  41  42  43  44  45  46 0
 3-21G
 ****


