%nproc=1
%NoSave
%Mem=1900MB
#P OB98/GEN NMR

erre ene a

0 1
  C     -312.444      24.300    -417.510
  O     -313.017      23.754    -418.695
  P     -314.094      24.635    -419.493
  C     -316.636      25.083    -419.266
  O     -315.467      24.569    -418.658
  C     -317.875      24.799    -418.417
  O     -318.196      23.378    -418.506
  C     -317.722      25.132    -416.934
  O     -319.004      25.559    -416.454
  C     -317.383      23.791    -416.306
  O     -317.652      23.766    -414.912
  C     -318.251      22.871    -417.155
  N     -318.554      18.409    -414.663
  C     -319.170      19.593    -414.464
  N     -319.033      20.735    -415.171
  C     -318.167      20.573    -416.179
  C     -317.433      19.441    -416.486
  C     -317.658      18.305    -415.685
  N     -317.044      17.094    -415.888
  N     -316.618      19.662    -417.579
  C     -316.849      20.914    -417.923
  N     -317.791      21.500    -417.119
  O     -314.397      23.735    -420.782
  O     -313.639      26.002    -419.876
  H     -318.617      23.834    -414.779
  H     -314.041      24.174    -421.581
  H     -319.859      19.625    -413.628
  H     -316.363      21.444    -418.732
  H     -319.304      22.884    -416.836
  H     -316.316      23.573    -416.452
  H     -316.964      25.902    -416.726
  H     -318.726      25.340    -418.849
  H     -316.764      24.606    -420.244
  H     -317.358      16.300    -415.360
  H     -316.522      16.960    -416.750
  H     -316.528      26.161    -419.427
  P     -319.044      26.899    -415.564
  C     -319.127      27.413    -413.020
  O     -319.225      26.434    -414.044
  O     -320.466      27.542    -415.937
  O     -317.919      27.845    -415.835
  H     -320.435      28.508    -415.824
  H     -319.799      27.128    -412.208
  H     -319.404      28.407    -413.390
  H     -318.105      27.435    -412.640
  H     -311.750      23.600    -417.094
  H     -313.218      24.500    -416.799
  H     -311.934      25.210    -417.747

 3  4  5  6  7  8  9  10  11  12  22  25  29  30  31  32 0
 6-311+G(2d,p)
 ****
 33  36  37 0
 6-311+G(2d,p)
 ****
 1  2  13  14  15  16  17  18  19  20  21  23  24  26 0
 3-21G
 ****
 27  28  34  35  38  39  40  41  42  43  44  45  46  47  48 0
 3-21G
 ****


