%nproc=1
%NoSave
%Mem=1900MB
#P OB98/GEN NMR

erre ene a

0 1
  C     -232.310    1200.090     -97.353
  O     -233.286    1200.873     -96.673
  P     -233.250    1202.463     -96.834
  C     -235.829    1202.495     -96.980
  O     -234.661    1203.055     -96.363
  C     -236.889    1202.157     -95.934
  O     -236.531    1201.015     -95.141
  C     -237.111    1203.297     -94.920
  O     -237.830    1204.360     -95.506
  C     -237.835    1202.555     -93.797
  O     -239.236    1202.445     -94.086
  C     -237.165    1201.154     -93.848
  N     -236.191    1200.950     -92.769
  C     -236.728    1200.860     -91.478
  O     -237.946    1200.995     -91.296
  N     -235.882    1200.643     -90.422
  C     -234.606    1200.521     -90.639
  N     -233.799    1200.300     -89.562
  C     -233.991    1200.622     -91.986
  C     -234.830    1200.843     -92.988
  O     -232.763    1202.972     -98.165
  O     -232.264    1202.934     -95.648
  H     -239.615    1201.945     -93.335
  H     -231.812    1203.738     -95.920
  H     -232.928    1200.510     -92.110
  H     -234.484    1200.927     -94.009
  H     -237.914    1200.375     -93.763
  H     -237.724    1203.085     -92.831
  H     -236.119    1203.655     -94.556
  H     -237.838    1201.951     -96.453
  H     -234.238    1200.236     -88.645
  H     -235.548    1201.583     -97.509
  H     -232.798    1200.146     -89.628
  H     -236.210    1203.185     -97.731
  P     -237.403    1205.853     -95.080
  C     -236.599    1206.947     -97.274
  O     -237.645    1206.818     -96.328
  O     -235.798    1205.771     -94.972
  O     -237.997    1206.327     -93.787
  H     -235.490    1206.354     -94.253
  H     -237.014    1207.367     -98.204
  H     -236.131    1205.987     -97.503
  H     -235.852    1207.649     -96.888
  H     -232.473    1199.054     -97.141
  H     -231.332    1200.372     -97.022
  H     -232.391    1200.256     -98.407

 3  4  5  6  7  8  9  10  11  12  13  23  27  28  29  30  32 0
 6-311+G(2d,p)
 ****
 34  35 0
 6-311+G(2d,p)
 ****
 1  2  14  15  16  17  18  19  20  21  22  24  25  26 0
 3-21G
 ****
 31  33  36  37  38  39  40  41  42  43  44  45  46 0
 3-21G
 ****


