%nproc=1
%NoSave
%Mem=1900MB
#P OB98/GEN NMR

erre ene a

0 1
  C        7.802    -208.115    -190.517
  O        8.167    -208.677    -191.792
  P        7.118    -209.621    -192.558
  C        5.725    -207.885    -193.917
  O        6.662    -208.950    -193.942
  C        5.673    -207.155    -195.271
  O        7.013    -206.733    -195.662
  C        5.113    -207.997    -196.426
  O        4.430    -207.097    -197.312
  C        6.373    -208.522    -197.090
  O        6.163    -208.960    -198.426
  C        7.278    -207.292    -196.967
  N        8.706    -207.581    -197.131
  C        9.488    -206.639    -197.788
  O        9.056    -205.610    -198.302
  N       10.827    -206.934    -197.877
  C       11.435    -208.067    -197.419
  O       12.631    -208.284    -197.554
  C       10.554    -209.038    -196.754
  C        9.256    -208.756    -196.645
  O        5.801    -209.459    -191.651
  O        7.501    -211.064    -192.651
  H        5.488    -209.662    -198.397
  H        5.406    -210.336    -191.487
  H       11.413    -206.258    -198.337
  H       10.996    -209.946    -196.371
  H        8.588    -209.454    -196.147
  H        6.975    -206.540    -197.700
  H        6.757    -209.376    -196.517
  H        4.437    -208.787    -196.093
  H        5.083    -206.238    -195.139
  H        6.011    -207.168    -193.142
  H        4.736    -208.284    -193.671
  P        2.820    -207.142    -197.357
  C        2.066    -205.909    -195.173
  O        2.288    -205.856    -196.565
  O        2.543    -208.343    -196.328
  O        2.247    -207.382    -198.713
  H        3.073    -208.276    -195.515
  H        2.861    -206.465    -194.664
  H        1.102    -206.382    -194.971
  H        2.050    -204.889    -194.779
  H        8.608    -207.516    -190.147
  H        7.598    -208.905    -189.825
  H        6.929    -207.507    -190.632

 3  4  5  6  7  8  9  10  11  12  13  23  28  29  30  31  32 0
 6-311+G(2d,p)
 ****
 33  34 0
 6-311+G(2d,p)
 ****
 1  2  14  15  16  17  18  19  20  21  22  24  25  26 0
 3-21G
 ****
 27  35  36  37  38  39  40  41  42  43  44  45 0
 3-21G
 ****


