%nproc=1
%NoSave
%Mem=1900MB
#P OB98/GEN NMR

erre ene a

0 1
  C       66.997    -616.997    -891.440
  O       66.254    -617.122    -892.630
  P       65.447    -618.501    -892.860
  C       67.230    -620.313    -893.390
  O       66.306    -619.357    -893.910
  C       67.282    -621.535    -894.310
  O       65.998    -622.195    -894.320
  C       67.582    -621.196    -895.770
  O       68.958    -620.951    -895.950
  C       67.075    -622.469    -896.460
  O       68.098    -623.478    -896.500
  C       65.903    -622.908    -895.580
  N       64.614    -622.698    -896.200
  C       64.227    -623.673    -897.150
  O       64.976    -624.612    -897.410
  N       63.018    -623.517    -897.790
  C       62.270    -622.499    -897.520
  N       61.100    -622.395    -898.190
  C       62.649    -621.445    -896.560
  C       63.828    -621.614    -895.940
  O       64.166    -618.035    -893.700
  O       65.066    -619.199    -891.590
  H       68.915    -623.033    -896.830
  H       63.410    -618.634    -893.560
  H       61.995    -620.605    -896.370
  H       64.177    -620.881    -895.210
  H       65.985    -623.979    -895.320
  H       66.807    -622.281    -897.500
  H       66.970    -620.339    -896.100
  H       68.025    -622.230    -893.910
  H       60.865    -623.122    -898.860
  H       66.899    -620.640    -892.400
  H       60.428    -621.647    -898.040
  H       68.208    -619.851    -893.310
  P       69.365    -619.655    -896.790
  C       69.105    -620.865    -899.070
  O       70.001    -620.262    -898.160
  O       70.663    -619.126    -896.020
  O       68.328    -618.589    -896.970
  H       70.963    -618.280    -896.390
  H       69.651    -621.061    -900.000
  H       68.286    -620.176    -899.290
  H       68.722    -621.788    -898.630
  H       67.477    -616.041    -891.418
  H       67.737    -617.769    -891.399
  H       66.341    -617.086    -890.599

 3  4  5  6  7  8  9  10  11  12  13  21  23  27  28  29  30  32 0
 6-311+G(2d,p)
 ****
 34  35 0
 6-311+G(2d,p)
 ****
 1  2  14  15  16  17  18  19  20  22  24  25  26 0
 3-21G
 ****
 31  33  36  37  38  39  40  41  42  43  44  45  46 0
 3-21G
 ****


