%nproc=1
%NoSave
%Mem=1900MB
#P OB98/GEN NMR

erre ene a

0 1
  C      -35.335     573.701    -391.001
  O      -36.201     574.626    -391.626
  H      -35.867     573.239    -390.165
  H      -34.454     574.215    -390.606
  H      -35.034     572.924    -391.700
  P      -35.667     575.490    -392.865
  C      -35.906     573.456    -394.414
  O      -35.007     574.420    -393.875
  C      -35.271     572.718    -395.599
  O      -35.119     573.634    -396.717
  C      -33.883     572.132    -395.294
  O      -33.812     570.787    -395.763
  C      -32.939     573.006    -396.105
  O      -31.713     572.359    -396.425
  C      -33.831     573.366    -397.293
  N      -33.308     574.492    -398.055
  C      -32.607     574.178    -399.227
  O      -32.466     572.999    -399.569
  N      -32.041     575.195    -399.946
  C      -32.119     576.422    -399.514
  N      -31.505     577.373    -400.268
  C      -32.827     576.795    -398.279
  C      -33.396     575.787    -397.607
  O      -34.787     576.634    -392.493
  O      -36.992     575.944    -393.648
  H      -31.345     571.959    -395.602
  H      -36.781     576.739    -394.193
  H      -32.862     577.820    -397.948
  H      -33.941     575.967    -396.683
  H      -33.938     572.504    -397.982
  H      -32.697     573.913    -395.539
  H      -33.636     572.154    -394.235
  H      -35.966     571.944    -395.938
  H      -31.027     577.073    -401.105
  H      -36.822     573.959    -394.728
  H      -31.488     578.350    -400.017
  H      -36.140     572.725    -393.630
  P      -34.715     569.718    -394.980
  C      -34.835     568.151    -397.043
  O      -35.552     568.878    -396.062
  O      -35.817     570.631    -394.247
  O      -33.940     568.887    -393.995
  H      -35.650     570.621    -393.283
  H      -35.524     567.646    -397.687
  H      -34.203     567.433    -396.564
  H      -34.236     568.825    -397.619

 6  7  8  9  10  11  12  13  14  15  16  26  30  31  32  33  35 0
 6-311+G(2d,p)
 ****
 37  38 0
 6-311+G(2d,p)
 ****
 1  2  3  4  5  17  18  19  20  21  22  23  24  25 0
 3-21G
 ****
 27  28  29  34  36  39  40  41  42  43  44  45  46 0
 3-21G
 ****


