%nproc=1
%NoSave
%Mem=1900MB
#P OB98/GEN NMR

erre ene a

0 1
  C     -613.504      29.647     279.934
  O     -613.764      29.011     281.173
  P     -612.733      29.243     282.377
  C     -614.374      30.942     283.474
  O     -613.049      30.691     282.998
  C     -614.397      31.015     284.999
  O     -613.424      32.003     285.460
  C     -615.770      31.412     285.592
  O     -615.899      30.732     286.840
  C     -615.599      32.903     285.856
  O     -616.529      33.393     286.820
  C     -614.143      32.945     286.297
  N     -614.542      37.882     287.586
  C     -615.271      36.801     287.936
  N     -615.090      35.508     287.551
  C     -614.049      35.404     286.732
  C     -613.230      36.423     286.259
  C     -613.501      37.716     286.739
  N     -612.756      38.818     286.391
  N     -612.257      35.921     285.393
  C     -612.499      34.621     285.347
  N     -613.548      34.265     286.151
  O     -611.341      29.455     281.617
  O     -612.658      28.127     283.371
  H     -616.307      34.314     287.005
  H     -610.747      28.687     281.796
  H     -616.102      36.975     288.614
  H     -611.950      33.905     284.766
  H     -614.007      32.630     287.331
  H     -615.741      33.476     284.917
  H     -616.621      31.188     284.951
  H     -614.085      30.043     285.403
  H     -615.009      30.118     283.152
  H     -612.929      39.688     286.880
  H     -611.856      38.678     285.913
  H     -614.751      31.874     283.036
  P     -617.392      30.402     287.343
  C     -617.243      28.249     285.899
  O     -618.018      29.386     286.268
  O     -618.188      31.786     287.054
  O     -617.499      30.001     288.771
  H     -618.941      31.866     287.687
  H     -617.934      27.408     285.695
  H     -616.547      27.948     286.701
  H     -616.696      28.472     284.991
  H     -614.276      29.397     279.236
  H     -612.560      29.317     279.555
  H     -613.480      30.707     280.075

 3  4  5  6  7  8  9  10  11  12  22  25  29  30  31  32 0
 6-311+G(2d,p)
 ****
 33  36  37 0
 6-311+G(2d,p)
 ****
 1  2  13  14  15  16  17  18  19  20  21  23  24  26 0
 3-21G
 ****
 27  28  34  35  38  39  40  41  42  43  44  45  46  47  48 0
 3-21G
 ****


