%nproc=1
%NoSave
%Mem=1900MB
#P OB98/GEN NMR

erre ene a

0 1
  C      -67.755      63.140     -75.012
  O      -68.186      63.289     -76.349
  H      -66.921      63.823     -74.834
  H      -67.411      62.117     -74.840
  H      -68.561      63.383     -74.314
  P      -69.529      62.548     -76.817
  C      -70.758      64.812     -76.919
  O      -70.751      63.493     -76.390
  C      -71.966      65.000     -77.833
  O      -73.171      64.574     -77.162
  C      -72.213      66.447     -78.247
  O      -71.292      66.853     -79.243
  C      -73.661      66.366     -78.708
  O      -73.747      65.832     -80.037
  C      -74.256      65.378     -77.676
  N      -74.975      66.043     -76.589
  C      -76.002      66.905     -76.962
  O      -76.287      67.144     -78.135
  N      -76.684      67.502     -75.934
  C      -76.390      67.386     -74.606
  O      -77.000      67.987     -73.725
  C      -75.273      66.491     -74.273
  C      -74.628      65.871     -75.264
  O      -69.663      61.122     -76.399
  O      -69.503      62.695     -78.412
  H      -73.352      64.939     -80.004
  H      -69.191      61.863     -78.813
  H      -77.423      68.139     -76.185
  H      -75.008      66.380     -73.230
  H      -73.799      65.210     -75.037
  H      -74.951      64.688     -78.170
  H      -74.151      67.340     -78.727
  H      -72.158      67.107     -77.373
  H      -71.828      64.362     -78.716
  H      -69.838      64.967     -77.493
  H      -70.785      65.526     -76.089
  P      -70.771      68.362     -79.309
  C      -69.493      68.157     -77.098
  O      -70.515      68.854     -77.800
  O      -71.604      69.289     -80.131
  O      -69.290      68.235     -79.903
  H      -69.280      68.538     -80.833
  H      -69.402      68.558     -76.110
  H      -68.564      68.270     -77.616
  H      -69.745      67.119     -77.040

 6  7  8  9  10  11  12  13  14  15  16  26  31  32  33  34  35 0
 6-311+G(2d,p)
 ****
 36  37 0
 6-311+G(2d,p)
 ****
 1  2  3  4  5  17  18  19  20  21  22  23  24  25 0
 3-21G
 ****
 27  28  29  30  38  39  40  41  42  43  44  45 0
 3-21G
 ****


