%nproc=1
%NoSave
%Mem=1900MB
#P OB98/GEN NMR

erre ene a

0 1
  C     -154.366    -571.563     711.951
  O     -154.617    -570.770     713.123
  P     -156.091    -570.813     713.744
  C     -155.105    -570.693     716.154
  O     -156.000    -571.340     715.253
  C     -155.500    -570.990     717.602
  O     -156.754    -570.365     717.937
  C     -155.708    -572.469     717.868
  O     -154.467    -573.135     718.014
  C     -156.550    -572.456     719.138
  O     -155.716    -572.466     720.317
  C     -157.322    -571.116     719.031
  N     -158.751    -571.312     718.853
  C     -159.412    -571.963     719.898
  O     -158.779    -572.357     720.887
  N     -160.767    -572.178     719.781
  C     -161.400    -571.799     718.718
  N     -162.731    -572.044     718.662
  C     -160.728    -571.131     717.577
  C     -159.414    -570.923     717.715
  O     -156.778    -572.038     712.966
  O     -156.868    -569.547     713.562
  H     -156.332    -572.435     721.072
  H     -157.732    -571.871     712.850
  H     -161.289    -570.841     716.698
  H     -158.843    -570.441     716.925
  H     -157.173    -570.513     719.934
  H     -157.196    -573.330     719.213
  H     -156.295    -572.920     717.048
  H     -154.718    -570.598     718.266
  H     -163.152    -572.501     719.458
  H     -155.116    -569.610     715.983
  H     -163.309    -571.797     717.861
  H     -154.083    -571.022     715.944
  P     -154.189    -574.423     717.093
  C     -152.068    -574.055     715.695
  O     -153.476    -573.856     715.776
  O     -155.664    -574.759     716.543
  O     -153.553    -575.597     717.750
  H     -155.654    -575.600     716.043
  H     -151.748    -573.813     714.674
  H     -151.814    -575.101     715.922
  H     -151.553    -573.383     716.396
  H     -153.347    -571.439     711.648
  H     -155.014    -571.247     711.161
  H     -154.549    -572.594     712.172

 3  4  5  6  7  8  9  10  11  12  13  21  23  27  28  29  30  32 0
 6-311+G(2d,p)
 ****
 34  35 0
 6-311+G(2d,p)
 ****
 1  2  14  15  16  17  18  19  20  22  24  25  26 0
 3-21G
 ****
 31  33  36  37  38  39  40  41  42  43  44  45  46 0
 3-21G
 ****


