%nproc=1
%NoSave
%Mem=1900MB
#P OB98/GEN NMR

erre ene a

0 1
  C      -36.698    -895.230     320.986
  O      -36.657    -895.250     319.564
  P      -37.143    -893.910     318.793
  C      -34.845    -893.090     317.914
  O      -36.118    -893.640     317.600
  C      -33.815    -893.480     316.825
  O      -33.512    -894.900     316.877
  C      -34.301    -893.230     315.417
  O      -34.172    -891.870     315.036
  C      -33.331    -894.100     314.608
  O      -32.094    -893.370     314.402
  C      -33.106    -895.300     315.534
  N      -33.971    -898.750     311.923
  C      -33.090    -897.680     311.936
  N      -32.294    -897.540     310.848
  N      -32.988    -896.840     312.944
  C      -33.801    -897.130     313.971
  C      -34.737    -898.150     314.067
  C      -34.881    -899.050     312.948
  O      -35.663    -900.000     312.869
  N      -35.389    -898.140     315.276
  C      -34.848    -897.120     315.925
  N      -33.885    -896.470     315.169
  O      -36.805    -892.750     319.857
  O      -38.598    -893.930     318.426
  H      -32.338    -892.440     314.241
  H      -37.412    -891.990     319.723
  H      -34.012    -899.360     311.129
  H      -35.088    -896.820     316.932
  H      -32.055    -895.590     315.599
  H      -33.714    -894.350     313.602
  H      -32.279    -898.210     310.075
  H      -35.323    -893.590     315.268
  H      -31.604    -896.790     310.875
  H      -32.889    -892.930     317.031
  H      -34.491    -893.510     318.875
  H      -34.911    -892.020     318.019
  P      -35.482    -891.130     314.452
  C      -35.010    -888.630     315.030
  O      -34.988    -889.640     314.047
  O      -36.383    -890.890     315.768
  O      -36.193    -891.900     313.413
  H      -37.323    -890.890     315.514
  H      -34.633    -889.010     315.990
  H      -36.042    -888.280     315.169
  H      -34.381    -887.810     314.694
  H      -36.354    -896.169     321.366
  H      -37.703    -895.060     321.311
  H      -36.068    -894.445     321.350

 3  4  5  6  7  8  9  10  11  12  23  26  30  31  33  0
 6-311+G(2d,p)
 ****
 35  36  37  38 0
 6-311+G(2d,p)
 ****
 1  2  13  14  15  16  17  18  19  20  21  22  24  25  27  28  29 0
 3-21G
 ****
 32  34  39  40  41  42  43  44  45  46  47  48  49 0
 3-21G
 ****


