%nproc=1
%NoSave
%Mem=1900MB
#P OB98/GEN NMR

erre ene a

0 1
  C      521.834    -363.962    -517.799
  O      522.284    -364.687    -518.915
  P      522.784    -366.212    -518.830
  C      525.323    -366.797    -518.847
  O      524.223    -366.231    -518.119
  C      525.817    -365.887    -519.977
  O      525.901    -364.528    -519.507
  C      527.234    -366.292    -520.390
  O      527.444    -367.344    -521.303
  C      527.925    -364.974    -520.762
  O      527.950    -364.741    -522.162
  C      527.081    -363.917    -520.047
  N      530.547    -360.412    -518.871
  C      529.898    -360.616    -520.075
  N      530.375    -359.926    -521.136
  N      528.895    -361.453    -520.220
  C      528.600    -362.129    -519.080
  C      529.153    -361.995    -517.840
  C      530.232    -361.051    -517.687
  O      530.894    -360.894    -516.661
  N      528.647    -362.910    -516.952
  C      527.803    -363.630    -517.666
  N      527.779    -363.221    -518.980
  O      522.559    -367.055    -520.046
  O      521.826    -366.787    -517.661
  H      528.481    -363.944    -522.345
  H      521.625    -367.713    -517.884
  H      531.368    -359.810    -518.843
  H      527.239    -364.473    -517.304
  H      526.742    -363.148    -520.759
  H      528.974    -364.987    -520.438
  H      531.230    -359.399    -521.093
  H      527.750    -366.628    -519.480
  H      530.031    -360.178    -522.055
  H      525.106    -365.866    -520.815
  H      524.981    -367.765    -519.243
  H      526.141    -366.994    -518.164
  P      528.826    -368.088    -521.604
  C      529.685    -367.462    -523.933
  O      529.713    -367.150    -522.552
  O      528.432    -369.307    -522.565
  O      529.533    -368.608    -520.395
  H      529.113    -370.005    -522.523
  H      530.519    -366.972    -524.429
  H      528.742    -367.085    -524.364
  H      529.742    -368.544    -524.098
  H      521.556    -362.975    -518.104
  H      522.617    -363.904    -517.072
  H      520.986    -364.455    -517.371

 3  4  5  6  7  8  9  10  11  12  23  26  30  31 0
 6-311+G(2d,p)
 ****
 33  35  36  37  38 0
 6-311+G(2d,p)
 ****
 1  2  13  14  15  16  17  18  19  20  21  22  24  25 0
 3-21G
 ****
 27  28  29  32  34  39  40  41  42  43  44  45  46  47  48  49 0
 3-21G
 ****


