%nproc=1
%NoSave
%Mem=1900MB
#P OB98/GEN NMR

erre ene a

0 1
  C      150.558    -143.279      83.385
  O      150.430    -143.158      84.786
  H      149.663    -143.771      82.992
  H      151.430    -143.883      83.124
  H      150.640    -142.289      82.928
  P      151.677    -142.615      85.632
  C      150.293    -140.724      86.702
  O      151.066    -141.895      86.931
  C      148.854    -141.088      86.336
  O      148.370    -142.073      87.287
  C      147.895    -139.892      86.358
  O      146.957    -140.049      85.291
  C      147.207    -140.045      87.698
  O      145.948    -139.398      87.714
  C      147.156    -141.566      87.870
  N      147.028    -141.935      89.279
  C      146.131    -142.966      89.576
  O      145.508    -143.526      88.672
  N      145.910    -143.298      90.886
  C      146.490    -142.622      91.828
  N      146.195    -142.977      93.108
  C      147.422    -141.508      91.564
  C      147.645    -141.222      90.282
  O      152.678    -141.803      84.881
  O      152.334    -143.946      86.232
  H      145.547    -139.488      88.605
  H      153.016    -144.286      85.623
  H      147.874    -140.971      92.384
  H      148.306    -140.412      89.993
  H      146.311    -141.993      87.317
  H      147.826    -139.595      88.484
  H      148.407    -138.930      86.268
  H      148.856    -141.572      85.352
  H      145.532    -143.730      93.239
  H      150.754    -140.173      85.875
  H      146.550    -142.498      93.921
  H      150.305    -140.092      87.596
  P      147.176    -139.292      83.892
  C      146.600    -141.363      82.505
  O      146.276    -140.002      82.766
  O      148.605    -139.091      83.508
  O      146.448    -137.878      84.105
  H      146.897    -137.202      83.565
  H      145.950    -141.745      81.746
  H      146.479    -141.937      83.400
  H      147.615    -141.431      82.173

 6  7  8  9  10  11  12  13  14  15  16  26  30  31  32  33  35 0
 6-311+G(2d,p)
 ****
 37  38 0
 6-311+G(2d,p)
 ****
 1  2  3  4  5  17  18  19  20  21  22  23  24  25 0
 3-21G
 ****
 27  28  29  34  36  39  40  41  42  43  44  45  46 0
 3-21G
 ****


