%nproc=1
%NoSave
%Mem=1900MB
#P OB98/GEN NMR

erre ene a

0 1
  C     -192.443     330.569     -93.809
  O     -191.129     331.075     -93.946
  H     -193.052     331.316     -93.296
  H     -192.440     329.651     -93.214
  H     -192.883     330.374     -94.792
  P     -190.023     330.147     -94.636
  C     -190.958     330.753     -96.966
  O     -190.627     329.711     -96.057
  C     -190.789     330.274     -98.403
  O     -191.377     331.217     -99.321
  C     -189.334     330.101     -98.842
  O     -188.822     328.858     -98.390
  C     -189.490     330.154    -100.351
  O     -190.007     328.897    -100.828
  C     -190.554     331.256    -100.520
  N     -187.977     334.426    -103.530
  C     -188.207     333.068    -103.662
  N     -187.645     332.466    -104.731
  N     -188.913     332.365    -102.816
  C     -189.355     333.085    -101.759
  C     -189.176     334.426    -101.508
  C     -188.449     335.207    -102.488
  O     -188.245     336.416    -102.421
  N     -189.689     334.783    -100.288
  C     -190.222     333.669     -99.824
  N     -190.039     332.604    -100.677
  O     -189.520     329.001     -93.812
  O     -188.851     331.160     -95.034
  H     -189.942     328.910    -101.801
  H     -188.183     331.222     -94.326
  H     -187.418     334.911    -104.211
  H     -190.755     333.576     -98.885
  H     -191.210     331.066    -101.376
  H     -188.547     330.333    -100.868
  H     -186.972     332.920    -105.331
  H     -188.716     330.943     -98.517
  H     -187.753     331.462    -104.812
  H     -191.344     329.335     -98.512
  H     -190.290     331.594     -96.761
  H     -191.991     331.083     -96.808
  P     -187.290     328.444     -98.634
  C     -186.656     329.294     -96.277
  O     -186.434     329.395     -97.670
  O     -186.860     328.451    -100.061
  O     -187.145     327.026     -97.914
  H     -187.418     326.270     -98.492
  H     -186.019     329.984     -95.763
  H     -186.438     328.298     -95.952
  H     -187.678     329.524     -96.061

 6  7  8  9  10  11  12  13  14  15  26  29  33  34 0
 6-311+G(2d,p)
 ****
 36  38  39  40  41 0
 6-311+G(2d,p)
 ****
 1  2  3  4  5  16  17  18  19  20  21  22  23  24  25 0
 3-21G
 ****
 27  28  30  31  32  35  37  42  43  44  45  46  47 0
 3-21G
 ****
 48  49 0
 3-21G
 ****


