%nproc=1
%NoSave
%Mem=1900MB
#P OB98/GEN NMR

erre ene a

0 1
  C     -145.006     119.554     -93.777
  O     -145.506     118.881     -92.639
  P     -145.871     119.694     -91.305
  C     -147.961     118.226     -90.945
  O     -147.462     119.547     -91.139
  C     -149.396     118.107     -91.456
  O     -149.425     118.139     -92.898
  C     -150.094     116.814     -91.056
  O     -150.513     116.872     -89.705
  C     -151.228     116.767     -92.071
  O     -152.335     117.582     -91.654
  C     -150.560     117.359     -93.331
  N     -150.177     116.332     -94.291
  C     -151.008     116.202     -95.410
  O     -152.012     116.904     -95.526
  N     -150.706     115.243     -96.346
  C     -149.681     114.469     -96.166
  N     -149.441     113.530     -97.122
  C     -148.799     114.553     -94.985
  C     -149.104     115.496     -94.096
  O     -145.346     121.089     -91.245
  O     -145.304     118.750     -90.141
  H     -151.983     118.490     -91.557
  H     -144.318     118.794     -90.090
  H     -147.963     113.879     -94.873
  H     -148.511     115.627     -93.199
  H     -151.240     118.059     -93.833
  H     -151.612     115.752     -92.211
  H     -149.421     115.964     -91.218
  H     -149.962     118.973     -91.086
  H     -150.087     113.486     -97.900
  H     -147.939     118.004     -89.874
  H     -148.694     112.856     -97.063
  H     -147.306     117.514     -91.458
  P     -149.629     116.178     -88.567
  C     -149.630     118.179     -86.962
  O     -148.847     117.333     -87.780
  O     -148.785     115.032     -89.020
  O     -150.717     115.689     -87.497
  H     -150.496     114.782     -87.210
  H     -148.975     118.682     -86.246
  H     -150.384     117.608     -86.413
  H     -150.123     118.932     -87.582
  H     -144.824     118.846     -94.559
  H     -144.092     120.050     -93.525
  H     -145.723     120.275     -94.109

 3  4  5  6  7  8  9  10  11  12  13  23  27  28  29  30  32 0
 6-311+G(2d,p)
 ****
 34  35 0
 6-311+G(2d,p)
 ****
 1  2  14  15  16  17  18  19  20  21  22  24  25  26 0
 3-21G
 ****
 31  33  36  37  38  39  40  41  42  43  44  45  46 0
 3-21G
 ****


