%nproc=1
%NoSave
%Mem=1900MB
#P OB98/GEN NMR

erre ene a

0 1
  C      -64.783    -623.128     266.133
  O      -64.247    -623.693     264.942
  P      -65.280    -623.974     263.743
  C      -65.056    -624.649     261.237
  O      -64.399    -624.278     262.439
  C      -64.165    -624.338     260.025
  O      -64.010    -622.911     259.894
  C      -62.758    -624.906     260.120
  O      -62.741    -626.302     259.851
  C      -62.061    -624.054     259.057
  O      -62.346    -624.554     257.744
  C      -62.726    -622.679     259.262
  N      -60.529    -618.047     259.610
  C      -61.210    -618.650     258.613
  N      -61.753    -619.897     258.593
  C      -61.511    -620.526     259.746
  C      -60.811    -620.055     260.844
  C      -60.309    -618.744     260.765
  N      -59.619    -618.141     261.776
  N      -60.774    -620.994     261.861
  C      -61.444    -622.027     261.376
  N      -61.940    -621.786     260.113
  O      -65.889    -622.528     263.441
  O      -66.350    -624.984     264.049
  H      -61.893    -623.970     257.098
  H      -66.824    -622.586     263.162
  H      -61.349    -618.062     257.710
  H      -61.604    -622.965     261.904
  H      -62.896    -622.154     258.313
  H      -60.963    -624.042     259.172
  H      -62.329    -624.711     261.107
  H      -64.674    -624.707     259.127
  H      -65.989    -624.098     261.141
  H      -59.143    -617.262     261.571
  H      -59.322    -618.706     262.558
  H      -65.293    -625.723     261.272
  P      -61.782    -627.210     260.758
  C      -61.517    -629.769     261.012
  O      -62.307    -628.718     260.484
  O      -62.341    -626.915     262.235
  O      -60.326    -626.991     260.553
  H      -63.314    -626.973     262.278
  H      -62.011    -630.708     260.802
  H      -61.402    -629.652     262.095
  H      -60.524    -629.769     260.530
  H      -63.998    -622.991     266.848
  H      -65.524    -623.786     266.538
  H      -65.230    -622.182     265.909

 3  4  5  6  7  8  9  10  11  12  22  25  29  30  31  32 0
 6-311+G(2d,p)
 ****
 33  36  37 0
 6-311+G(2d,p)
 ****
 1  2  13  14  15  16  17  18  19  20  21  23  24  26 0
 3-21G
 ****
 27  28  34  35  38  39  40  41  42  43  44  45  46  47  48 0
 3-21G
 ****


