%nproc=1
%NoSave
%Mem=1900MB
#P OB98/GEN NMR

erre ene a

0 1
  C       28.657      18.923      19.142
  O       28.582      20.045      18.273
  P       27.165      20.351      17.581
  C       26.217      22.308      16.166
  O       27.317      21.802      16.913
  C       26.282      23.826      16.080
  O       26.369      24.386      17.404
  C       27.489      24.367      15.330
  O       27.301      24.329      13.924
  C       27.533      25.801      15.837
  O       26.592      26.604      15.101
  C       27.078      25.647      17.298
  N       30.049      28.508      20.234
  C       29.012      28.875      19.399
  N       28.708      30.190      19.362
  N       28.338      28.030      18.666
  C       28.726      26.745      18.835
  C       29.739      26.257      19.630
  C       30.512      27.209      20.399
  O       31.482      26.949      21.105
  N       29.822      24.891      19.549
  C       28.841      24.550      18.738
  N       28.167      25.643      18.254
  O       26.203      20.620      18.831
  O       26.643      19.269      16.700
  H       26.706      27.526      15.402
  H       25.278      20.426      18.585
  H       30.523      29.197      20.790
  H       28.588      23.532      18.476
  H       26.371      26.436      17.580
  H       28.515      26.268      15.716
  H       29.101      30.866      19.998
  H       28.405      23.845      15.627
  H       27.927      30.473      18.784
  H       25.351      24.184      15.622
  H       25.283      22.019      16.659
  H       26.236      21.864      15.166
  P       28.408      23.534      13.072
  C       28.376      22.341      10.765
  O       27.636      23.002      11.773
  O       28.661      22.216      13.940
  O       29.663      24.301      12.829
  H       29.556      21.866      13.769
  H       29.176      21.729      11.191
  H       28.806      23.082      10.085
  H       27.702      21.692      10.201
  H       29.651      18.838      19.530
  H       28.408      18.035      18.600
  H       27.968      19.052      19.951

 3  4  5  6  7  8  9  10  11  12  23  26  30  31  33  0
 6-311+G(2d,p)
 ****
 35  36  37  38 0
 6-311+G(2d,p)
 ****
 1  2  13  14  15  16  17  18  19  20  21  22  24  25  27  28  29 0
 3-21G
 ****
 32  34  39  40  41  42  43  44  45  46  47  48  49 0
 3-21G
 ****


