%nproc=1
%NoSave
%Mem=1900MB
#P OB98/GEN NMR

erre ene a

0 1
  C      -27.574       7.451    -123.317
  O      -27.108       8.176    -124.438
  H      -27.070       7.827    -122.424
  H      -27.346       6.386    -123.431
  H      -28.652       7.592    -123.204
  P      -27.702       7.751    -125.867
  C      -28.649      10.146    -125.813
  O      -28.909       8.782    -126.118
  C      -29.358      11.063    -126.815
  O      -28.889      10.741    -128.146
  C      -30.881      10.904    -126.808
  O      -31.488      12.182    -126.995
  C      -31.154      10.032    -128.020
  O      -32.467      10.216    -128.541
  C      -30.033      10.457    -128.969
  N      -31.807       7.888    -133.002
  C      -32.282       8.965    -132.339
  N      -31.734       9.597    -131.278
  C      -30.557       9.037    -130.946
  C      -29.949       7.941    -131.530
  C      -30.634       7.347    -132.607
  N      -30.174       6.237    -133.275
  N      -28.767       7.640    -130.882
  C      -28.653       8.553    -129.935
  N      -29.722       9.409    -129.925
  O      -28.051       6.309    -126.019
  O      -26.573       8.293    -126.863
  H      -33.113       9.946    -127.855
  H      -26.276       9.187    -126.612
  H      -33.225       9.368    -132.697
  H      -27.835       8.625    -129.226
  H      -30.287      11.357    -129.541
  H      -31.046       8.974    -127.745
  H      -31.252      10.450    -125.888
  H      -29.066      12.101    -126.613
  H      -27.570      10.342    -125.843
  H      -30.721       5.883    -134.045
  H      -29.287       5.828    -133.005
  H      -29.010      10.343    -124.799
  P      -32.333      12.811    -125.786
  C      -30.856      14.919    -125.591
  O      -31.372      13.766    -124.929
  O      -33.151      11.846    -124.993
  O      -33.275      13.867    -126.540
  H      -34.154      13.872    -126.114
  H      -30.234      15.469    -124.916
  H      -31.667      15.538    -125.913
  H      -30.280      14.615    -126.440

 6  7  8  9  10  11  12  13  14  15  25  28  32  33  34  35 0
 6-311+G(2d,p)
 ****
 36  39  40 0
 6-311+G(2d,p)
 ****
 1  2  3  4  5  16  17  18  19  20  21  22  23  24 0
 3-21G
 ****
 26  27  29  30  31  37  38  41  42  43  44  45  46  47 0
 3-21G
 ****
 48 0
 3-21G
 ****


