%nproc=1
%NoSave
%Mem=1900MB
#P OB98/GEN NMR

erre ene a

0 1
  C     -174.041     132.857     136.538
  O     -174.452     133.441     135.311
  P     -174.354     132.535     133.989
  C     -172.468     133.964     132.917
  O     -172.854     132.699     133.437
  C     -171.186     133.857     132.087
  O     -170.850     135.166     131.566
  C     -169.978     133.335     132.868
  O     -169.213     132.506     131.988
  C     -169.186     134.588     133.176
  O     -167.807     134.302     133.394
  C     -169.484     135.444     131.935
  N     -169.277     136.868     132.182
  C     -168.098     137.432     131.682
  O     -167.256     136.717     131.133
  N     -167.879     138.776     131.859
  C     -168.710     139.473     132.569
  N     -168.450     140.800     132.713
  C     -169.902     138.891     133.217
  C     -170.132     137.604     132.967
  O     -175.229     133.354     132.928
  O     -174.835     131.130     134.159
  H     -167.746     133.557     134.035
  H     -175.665     132.750     132.298
  H     -170.545     139.508     133.832
  H     -170.994     137.097     133.384
  H     -168.846     135.141     131.094
  H     -169.585     135.071     134.079
  H     -170.264     132.763     133.758
  H     -171.390     133.208     131.226
  H     -167.622     141.172     132.270
  H     -172.280     134.650     133.748
  H     -169.042     141.423     133.251
  H     -173.285     134.376     132.314
  P     -169.209     130.926     132.271
  C     -166.661     130.836     132.585
  O     -167.926     130.675     133.200
  O     -168.700     130.354     130.861
  O     -170.487     130.276     132.688
  H     -168.714     129.378     130.878
  H     -165.888     130.769     133.355
  H     -166.595     131.810     132.097
  H     -166.499     130.037     131.855
  H     -174.159     133.568     137.329
  H     -173.013     132.568     136.469
  H     -174.641     131.995     136.741

 3  4  5  6  7  8  9  10  11  12  13  21  23  27  28  29  30  32 0
 6-311+G(2d,p)
 ****
 34  35 0
 6-311+G(2d,p)
 ****
 1  2  14  15  16  17  18  19  20  22  24  25  26 0
 3-21G
 ****
 31  33  36  37  38  39  40  41  42  43  44  45  46 0
 3-21G
 ****


