%nproc=1
%NoSave
%Mem=1900MB
#P OB98/GEN NMR

erre ene a

0 1
  C      290.679    -314.566       5.432
  O      291.339    -314.773       6.670
  P      291.708    -316.251       7.176
  C      290.248    -318.248       7.876
  O      290.344    -316.831       7.788
  C      288.790    -318.664       8.050
  O      288.129    -318.562       6.766
  C      288.558    -320.103       8.507
  O      288.633    -320.299       9.913
  C      287.120    -320.317       8.048
  O      286.215    -319.698       8.981
  C      287.095    -319.574       6.710
  N      285.494    -320.964       2.053
  C      285.051    -320.026       2.917
  N      285.519    -319.728       4.150
  C      286.586    -320.493       4.445
  C      287.152    -321.484       3.666
  C      286.561    -321.716       2.410
  N      287.028    -322.659       1.523
  N      288.225    -322.064       4.316
  C      288.305    -321.419       5.460
  N      287.342    -320.455       5.583
  O      292.900    -316.322       8.064
  O      291.886    -317.096       5.830
  H      285.316    -319.995       8.745
  H      292.362    -317.926       6.019
  H      284.205    -319.434       2.579
  H      289.037    -321.619       6.231
  H      286.143    -319.061       6.532
  H      286.844    -321.374       7.992
  H      289.213    -320.803       7.974
  H      288.307    -317.956       8.736
  H      290.821    -318.575       8.751
  H      286.625    -322.663       0.598
  H      287.916    -323.100       1.719
  H      290.685    -318.703       6.986
  P      289.065    -321.760      10.428
  C      288.089    -324.147       9.994
  O      287.903    -322.749       9.942
  O      289.404    -321.829      11.876
  O      290.290    -322.125       9.465
  H      290.058    -322.258       8.532
  H      287.135    -324.636       9.777
  H      288.421    -324.460      10.988
  H      288.820    -324.459       9.246
  H      290.525    -313.518       5.281
  H      289.734    -315.067       5.444
  H      291.280    -314.957       4.638

 3  4  5  6  7  8  9  10  11  12  22  25  29  30  31  32 0
 6-311+G(2d,p)
 ****
 33  36  37 0
 6-311+G(2d,p)
 ****
 1  2  13  14  15  16  17  18  19  20  21  23  24  26 0
 3-21G
 ****
 27  28  34  35  38  39  40  41  42  43  44  45  46  47  48 0
 3-21G
 ****


