%nproc=1
%NoSave
%Mem=1900MB
#P OB98/GEN NMR

erre ene a

0 1
  C       75.489     382.954      35.107
  O       75.520     382.701      36.501
  P       75.631     381.168      36.970
  C       77.416     381.840      38.743
  O       76.183     381.175      38.474
  C       77.775     381.701      40.220
  O       77.027     382.655      41.006
  C       77.456     380.338      40.826
  O       78.401     379.362      40.424
  C       77.479     380.680      42.313
  O       78.838     380.749      42.779
  C       76.841     382.082      42.328
  N       73.374     381.777      46.089
  C       74.725     381.745      46.101
  N       75.576     381.810      45.059
  C       74.907     381.926      43.902
  C       73.532     381.949      43.728
  C       72.747     381.873      44.889
  N       71.368     381.902      44.868
  N       73.210     382.052      42.392
  C       74.368     382.103      41.768
  N       75.421     382.047      42.640
  O       76.864     380.613      36.120
  O       74.389     380.357      36.752
  H       79.226     381.575      42.420
  H       76.730     379.675      35.883
  H       75.182     381.659      47.087
  H       74.494     382.189      40.695
  H       77.320     382.751      43.051
  H       76.955     379.947      42.933
  H       76.449     380.018      40.534
  H       78.844     381.922      40.331
  H       77.321     382.902      38.501
  H       70.887     381.693      45.728
  H       70.905     381.828      43.969
  H       78.196     381.412      38.107
  P       78.066     377.830      40.754
  C       79.940     376.933      39.240
  O       79.478     377.081      40.576
  O       77.267     377.383      39.442
  O       77.371     377.602      42.047
  H       77.725     377.644      38.623
  H       80.926     376.461      39.266
  H       80.030     377.909      38.757
  H       79.255     376.295      38.675
  H       75.414     384.008      34.937
  H       74.643     382.462      34.674
  H       76.386     382.583      34.657

 3  4  5  6  7  8  9  10  11  12  22  25  29  30  31  32 0
 6-311+G(2d,p)
 ****
 33  36  37 0
 6-311+G(2d,p)
 ****
 1  2  13  14  15  16  17  18  19  20  21  23  24  26 0
 3-21G
 ****
 27  28  34  35  38  39  40  41  42  43  44  45  46  47  48 0
 3-21G
 ****


