%nproc=1
%NoSave
%Mem=1900MB
#P OB98/GEN NMR

erre ene a

0 1
  C       81.242     436.713    -130.608
  O       80.109     436.361    -131.383
  P       78.735     436.065    -130.606
  C       77.543     438.228    -131.371
  O       78.078     437.495    -130.278
  C       76.021     438.105    -131.413
  O       75.500     438.216    -130.058
  C       75.323     439.178    -132.267
  O       74.292     438.558    -133.052
  C       74.647     440.062    -131.232
  O       73.518     440.741    -131.772
  C       74.316     439.033    -130.152
  N       71.353     438.467    -126.095
  C       71.639     437.578    -127.118
  N       70.996     436.388    -127.073
  N       72.473     437.825    -128.092
  C       73.063     439.037    -127.988
  C       72.875     440.004    -127.025
  C       71.901     439.738    -125.984
  O       71.539     440.522    -125.110
  N       73.674     441.102    -127.249
  C       74.343     440.803    -128.349
  N       73.974     439.583    -128.861
  O       79.242     435.538    -129.174
  O       77.835     435.070    -131.258
  H       73.848     441.343    -132.466
  H       78.863     434.658    -128.998
  H       70.687     438.230    -125.381
  H       75.071     441.443    -128.819
  H       73.484     438.394    -130.479
  H       75.363     440.810    -130.874
  H       70.364     436.114    -126.330
  H       75.995     439.739    -132.917
  H       71.201     435.715    -127.794
  H       75.761     437.096    -131.770
  H       77.961     437.842    -132.308
  H       77.826     439.279    -131.266
  P       73.842     439.359    -134.374
  C       75.038     437.644    -135.939
  O       74.924     438.988    -135.493
  O       74.168     440.881    -134.016
  O       72.413     439.142    -134.749
  H       73.606     441.483    -134.539
  H       74.219     437.022    -135.563
  H       75.989     437.234    -135.598
  H       75.012     437.634    -137.035
  H       82.078     436.880    -131.254
  H       81.470     435.919    -129.928
  H       81.034     437.606    -130.057

 3  4  5  6  7  8  9  10  11  12  23  26  30  31  33  0
 6-311+G(2d,p)
 ****
 35  36  37  38 0
 6-311+G(2d,p)
 ****
 1  2  13  14  15  16  17  18  19  20  21  22  24  25  27  28  29 0
 3-21G
 ****
 32  34  39  40  41  42  43  44  45  46  47  48  49 0
 3-21G
 ****


