%nproc=1
%NoSave
%Mem=1900MB
#P OB98/GEN NMR

erre ene a

0 1
  C      786.759     134.883     365.309
  O      785.365     134.661     365.354
  P      784.736     133.329     364.708
  C      783.239     134.872     363.286
  O      784.139     133.761     363.282
  C      783.553     135.807     362.123
  O      784.975     136.121     362.085
  C      783.258     135.217     360.748
  O      781.908     134.958     360.432
  C      784.018     136.177     359.842
  O      783.264     137.368     359.604
  C      785.271     136.485     360.700
  N      786.460     135.793     360.205
  C      787.657     136.483     360.303
  O      787.745     137.618     360.780
  N      788.765     135.846     359.812
  C      788.781     134.635     359.191
  O      789.795     134.139     358.725
  C      787.485     133.950     359.099
  C      786.397     134.550     359.598
  O      783.780     132.594     365.591
  O      786.027     132.479     364.292
  H      782.380     137.084     359.284
  H      786.616     132.921     363.655
  H      789.638     136.345     359.853
  H      787.460     132.974     358.622
  H      785.420     134.060     359.538
  H      785.475     137.561     360.694
  H      784.226     135.724     358.868
  H      783.766     134.248     360.684
  H      783.014     136.745     362.282
  H      783.359     135.419     364.227
  H      782.209     134.511     363.239
  P      781.324     133.483     360.187
  C      780.330     134.198     357.902
  O      781.123     133.284     358.613
  O      780.215     133.044     361.092
  O      782.618     132.574     360.473
  H      782.335     131.716     360.843
  H      780.273     133.882     356.852
  H      780.778     135.198     357.939
  H      779.322     134.241     358.327
  H      786.988     135.814     365.785
  H      787.082     134.915     364.290
  H      787.263     134.088     365.818

 3  4  5  6  7  8  9  10  11  12  13  23  28  29  30  31  32 0
 6-311+G(2d,p)
 ****
 33  34 0
 6-311+G(2d,p)
 ****
 1  2  14  15  16  17  18  19  20  21  22  24  25  26  27 0
 3-21G
 ****
 35  36  37  38  39  40  41  42  43  44  45 0
 3-21G
 ****


