%nproc=1
%NoSave
%Mem=1900MB
#P OB98/GEN NMR

erre ene a

0 1
  C     -337.305    -395.224    -673.773
  O     -336.674    -396.208    -672.948
  P     -336.415    -397.666    -673.557
  C     -334.211    -398.141    -672.301
  O     -335.568    -398.523    -672.496
  C     -333.778    -398.410    -670.854
  O     -334.496    -397.509    -669.967
  C     -334.079    -399.823    -670.338
  O     -333.095    -400.840    -670.537
  C     -334.154    -399.584    -668.829
  O     -332.829    -399.592    -668.265
  C     -334.751    -398.187    -668.719
  N     -338.293    -398.754    -665.063
  C     -336.945    -398.789    -665.027
  N     -336.075    -398.632    -666.044
  C     -336.721    -398.400    -667.196
  C     -338.095    -398.339    -667.387
  C     -338.898    -398.526    -666.253
  N     -340.278    -398.502    -666.291
  N     -338.392    -398.086    -668.714
  C     -337.218    -398.027    -669.315
  N     -336.177    -398.189    -668.438
  O     -335.910    -397.704    -674.964
  O     -337.866    -398.343    -673.460
  H     -332.422    -400.436    -668.532
  H     -338.006    -398.902    -674.247
  H     -336.498    -398.970    -664.050
  H     -337.078    -397.865    -670.377
  H     -334.280    -397.590    -667.927
  H     -334.716    -400.368    -668.314
  H     -335.048    -400.175    -670.703
  H     -332.701    -398.200    -670.750
  H     -334.096    -397.082    -672.530
  H     -340.776    -398.693    -665.438
  H     -340.745    -398.392    -667.181
  H     -333.606    -398.686    -673.029
  P     -333.183    -401.857    -671.778
  C     -330.928    -400.961    -672.769
  O     -331.672    -402.058    -672.269
  O     -334.143    -401.472    -672.850
  O     -333.515    -403.251    -671.053
  H     -332.795    -403.601    -670.513
  H     -329.879    -401.256    -672.849
  H     -331.005    -400.108    -672.103
  H     -331.299    -400.700    -673.768
  H     -337.406    -394.311    -673.225
  H     -338.273    -395.572    -674.067
  H     -336.708    -395.053    -674.644

 3  4  5  6  7  8  9  10  11  12  22  25  29  30  31  32 0
 6-311+G(2d,p)
 ****
 33  36  37 0
 6-311+G(2d,p)
 ****
 1  2  13  14  15  16  17  18  19  20  21  23  24  26 0
 3-21G
 ****
 27  28  34  35  38  39  40  41  42  43  44  45  46  47  48 0
 3-21G
 ****


