%nproc=1
%NoSave
%Mem=1900MB
#P OB98/GEN NMR

erre ene a

0 1
  C     -230.910     324.902     104.796
  O     -230.343     325.057     103.494
  P     -230.571     326.457     102.750
  C     -232.256     325.486     100.990
  O     -232.007     326.409     102.033
  C     -232.924     326.178      99.784
  O     -234.134     326.834     100.247
  C     -232.095     327.279      99.119
  O     -232.618     327.526      97.814
  C     -232.383     328.467     100.016
  O     -232.056     329.695      99.378
  C     -233.879     328.264     100.360
  N     -234.243     328.735     101.715
  C     -234.619     330.070     101.877
  O     -234.667     330.881     100.951
  N     -234.905     330.464     103.154
  C     -234.897     329.670     104.261
  O     -235.078     330.096     105.396
  C     -234.629     328.246     104.019
  C     -234.306     327.851     102.785
  O     -229.523     326.414     101.539
  O     -230.361     327.648     103.629
  H     -232.339     329.602      98.438
  H     -228.763     326.993     101.731
  H     -235.118     331.440     103.289
  H     -234.676     327.566     104.865
  H     -234.085     326.802     102.588
  H     -234.519     328.793      99.645
  H     -231.773     328.398     100.925
  H     -231.021     327.063      99.060
  H     -233.217     325.420      99.049
  H     -232.891     324.670     101.353
  H     -231.312     325.027     100.665
  P     -232.115     326.587      96.613
  C     -230.413     328.276      95.679
  O     -230.601     327.017      96.303
  O     -233.015     326.499      95.422
  O     -231.938     325.164      97.325
  H     -231.928     324.450      96.651
  H     -229.441     328.673      95.982
  H     -231.198     328.983      95.964
  H     -230.418     328.135      94.592
  H     -230.681     323.926     105.171
  H     -231.972     325.022     104.739
  H     -230.502     325.641     105.453

 3  4  5  6  7  8  9  10  11  12  13  23  28  29  30  31  32 0
 6-311+G(2d,p)
 ****
 33  34 0
 6-311+G(2d,p)
 ****
 1  2  14  15  16  17  18  19  20  21  22  24  25  26  27 0
 3-21G
 ****
 35  36  37  38  39  40  41  42  43  44  45 0
 3-21G
 ****


