%nproc=1
%NoSave
%Mem=1900MB
#P OB98/GEN NMR

erre ene a

0 1
  C      541.137     358.926     -42.456
  O      541.161     358.552     -41.092
  H      541.116     360.016     -42.520
  H      540.242     358.526     -42.940
  H      542.033     358.559     -42.964
  P      541.170     356.977     -40.783
  C      538.631     356.531     -41.069
  O      539.724     356.636     -40.170
  C      537.366     356.119     -40.322
  O      537.513     354.800     -39.754
  C      536.982     357.048     -39.177
  O      536.272     358.178     -39.650
  C      536.121     356.127     -38.323
  O      534.777     356.031     -38.840
  C      536.855     354.785     -38.459
  N      537.643     352.413     -34.073
  C      536.546     352.401     -34.909
  N      535.477     351.690     -34.481
  N      536.491     353.033     -36.048
  C      537.621     353.727     -36.327
  C      538.781     353.802     -35.590
  C      538.836     353.072     -34.344
  O      539.801     352.990     -33.593
  N      539.713     354.591     -36.213
  C      539.105     355.022     -37.304
  N      537.827     354.537     -37.408
  O      542.143     356.851     -39.515
  O      541.617     356.107     -41.907
  H      534.814     355.815     -39.788
  H      542.592     355.986     -39.544
  H      537.631     351.890     -33.215
  H      539.546     355.679     -38.041
  H      536.164     353.935     -38.455
  H      536.036     356.489     -37.299
  H      535.338     351.476     -33.505
  H      537.870     357.348     -38.605
  H      534.659     351.696     -35.078
  H      536.554     356.064     -41.059
  H      538.864     355.772     -41.826
  H      538.478     357.494     -41.566
  P      536.745     359.626     -39.137
  C      535.475     360.014     -36.900
  O      535.516     360.233     -38.302
  O      536.755     360.506     -40.473
  O      538.066     359.638     -38.444
  H      537.279     361.317     -40.334
  H      534.601     360.478     -36.492
  H      536.348     360.437     -36.447
  H      535.445     358.963     -36.704

 6  7  8  9  10  11  12  13  14  15  26  29  33  34 0
 6-311+G(2d,p)
 ****
 36  38  39  40  41 0
 6-311+G(2d,p)
 ****
 1  2  3  4  5  16  17  18  19  20  21  22  23  24  25 0
 3-21G
 ****
 27  28  30  31  32  35  37  42  43  44  45  46  47 0
 3-21G
 ****
 48  49 0
 3-21G
 ****


