%nproc=1
%NoSave
%Mem=1900MB
#P OB98/GEN NMR

erre ene a

0 1
  C      499.978     306.897      56.599
  O      499.352     305.641      56.742
  H      500.749     306.818      55.826
  H      500.456     307.176      57.543
  H      499.265     307.671      56.305
  P      497.919     305.573      57.454
  C      496.706     304.061      55.748
  O      496.806     305.360      56.307
  C      495.436     303.340      56.206
  O      494.284     304.167      55.935
  C      495.215     302.012      55.480
  O      495.865     300.902      56.075
  C      493.697     301.862      55.557
  O      493.292     301.197      56.767
  C      493.195     303.313      55.552
  N      489.643     302.600      51.943
  C      489.927     301.813      53.040
  N      489.204     300.683      53.165
  N      490.854     302.108      53.913
  C      491.563     303.222      53.610
  C      491.380     304.078      52.534
  C      490.307     303.777      51.616
  O      489.998     304.452      50.634
  N      492.318     305.075      52.524
  C      493.111     304.780      53.529
  N      492.652     303.712      54.264
  O      497.653     307.087      57.912
  O      497.819     304.641      58.620
  H      492.311     301.138      56.762
  H      497.118     307.091      58.724
  H      488.903     302.347      51.321
  H      494.008     305.331      53.808
  H      492.399     303.468      56.293
  H      493.319     301.256      54.727
  H      488.537     300.365      52.479
  H      495.500     302.096      54.430
  H      489.517     299.978      53.845
  H      495.479     303.200      57.294
  H      497.591     303.506      56.076
  H      496.739     304.111      54.650
  P      496.314     299.646      55.201
  C      498.890     300.085      55.475
  O      497.774     299.932      54.623
  O      495.382     299.757      53.902
  O      496.198     298.308      55.871
  H      494.618     299.153      53.980
  H      499.765     300.269      54.887
  H      499.026     299.192      56.048
  H      498.724     300.911      56.135

 6  7  8  9  10  11  12  13  14  15  26  29  33  34 0
 6-311+G(2d,p)
 ****
 36  38  39  40  41 0
 6-311+G(2d,p)
 ****
 1  2  3  4  5  16  17  18  19  20  21  22  23  24  25 0
 3-21G
 ****
 27  28  30  31  32  35  37  42  43  44  45  46  47 0
 3-21G
 ****
 48  49 0
 3-21G
 ****


