%nproc=1
%NoSave
%Mem=1900MB
#P OB98/GEN NMR

erre ene a

0 1
  C      349.816     284.146     321.967
  O      350.447     285.072     322.865
  P      351.621     284.629     323.861
  C      350.726     286.031     325.832
  O      351.828     285.780     324.958
  C      350.955     287.283     326.688
  O      352.314     287.337     327.158
  C      350.711     288.602     325.962
  O      349.325     288.874     325.878
  C      351.504     289.571     326.827
  O      350.749     289.943     327.993
  C      352.719     288.713     327.233
  N      356.642     291.865     326.298
  C      355.666     291.893     327.231
  N      354.655     291.019     327.414
  C      354.725     290.022     326.516
  C      355.654     289.861     325.498
  C      356.655     290.842     325.405
  N      357.641     290.821     324.445
  N      355.390     288.726     324.761
  C      354.325     288.194     325.333
  N      353.881     288.949     326.395
  O      352.877     284.203     323.178
  O      351.001     283.418     324.713
  H      350.759     289.185     328.602
  H      351.714     282.819     325.003
  H      355.706     292.725     327.926
  H      353.838     287.285     325.014
  H      353.018     288.904     328.271
  H      351.776     290.489     326.300
  H      351.155     288.565     324.961
  H      350.305     287.208     327.572
  H      350.593     285.159     326.480
  H      358.297     291.585     324.422
  H      357.628     290.094     323.747
  H      349.823     286.155     325.222
  P      348.690     289.398     324.504
  C      347.098     291.137     325.522
  O      347.204     289.901     324.825
  O      348.801     288.458     323.344
  O      349.470     290.768     324.220
  H      349.523     290.912     323.252
  H      347.280     290.970     326.589
  H      346.086     291.525     325.385
  H      347.821     291.865     325.134
  H      349.065     284.655     321.400
  H      349.364     283.356     322.529
  H      350.549     283.738     321.303

 3  4  5  6  7  8  9  10  11  12  22  25  29  30  31  32 0
 6-311+G(2d,p)
 ****
 33  36  37 0
 6-311+G(2d,p)
 ****
 1  2  13  14  15  16  17  18  19  20  21  23  24  26 0
 3-21G
 ****
 27  28  34  35  38  39  40  41  42  43  44  45  46  47  48 0
 3-21G
 ****


