%nproc=1
%NoSave
%Mem=1900MB
#P OB98/GEN NMR

erre ene a

0 1
  C      452.798     576.786    -157.700
  O      451.910     575.895    -157.056
  H      452.296     577.292    -158.525
  H      453.128     577.536    -156.975
  H      453.677     576.244    -158.068
  P      451.281     574.724    -157.963
  C      448.810     575.052    -157.220
  O      449.972     574.238    -157.171
  C      447.693     574.381    -156.430
  O      447.134     573.284    -157.186
  C      448.148     573.788    -155.104
  O      448.224     574.755    -154.071
  C      447.027     572.789    -154.842
  O      445.863     573.477    -154.368
  C      446.783     572.217    -156.250
  N      447.324     567.200    -155.411
  C      446.381     568.086    -155.010
  N      446.302     569.401    -155.291
  C      447.317     569.781    -156.085
  C      448.337     568.987    -156.582
  C      448.327     567.627    -156.207
  N      449.301     566.729    -156.593
  N      449.209     569.740    -157.352
  C      448.701     570.962    -157.329
  N      447.576     571.039    -156.551
  O      452.299     573.503    -157.766
  O      451.045     575.064    -159.396
  H      445.199     572.803    -154.132
  H      452.141     572.813    -158.439
  H      445.602     567.685    -154.370
  H      449.116     571.814    -157.847
  H      445.727     571.957    -156.423
  H      447.295     572.052    -154.086
  H      449.091     573.244    -155.211
  H      446.885     575.115    -156.282
  H      448.496     575.170    -158.266
  H      449.280     565.825    -156.149
  H      450.120     567.077    -157.062
  H      449.029     576.033    -156.799
  P      449.492     574.683    -153.073
  C      448.256     573.739    -151.003
  O      448.909     574.853    -151.588
  O      450.229     576.075    -153.350
  O      450.383     573.509    -153.302
  H      451.197     575.990    -153.239
  H      447.922     573.997    -150.020
  H      448.938     572.917    -150.944
  H      447.415     573.462    -151.604

 6  7  8  9  10  11  12  13  14  15  25  28  32  33  34  35 0
 6-311+G(2d,p)
 ****
 36  39  40 0
 6-311+G(2d,p)
 ****
 1  2  3  4  5  16  17  18  19  20  21  22  23  24 0
 3-21G
 ****
 26  27  29  30  31  37  38  41  42  43  44  45  46  47 0
 3-21G
 ****
 48 0
 3-21G
 ****


