%nproc=1
%NoSave
%Mem=1900MB
#P OB98/GEN NMR

erre ene a

0 1
  C     -246.687     100.604     106.695
  O     -247.815     101.312     106.221
  H     -246.977      99.570     106.903
  H     -246.320     101.057     107.620
  H     -245.892     100.603     105.944
  P     -247.583     102.826     105.748
  C     -246.933     102.200     103.302
  O     -247.856     102.850     104.164
  C     -247.438     102.266     101.857
  O     -248.746     101.628     101.797
  C     -247.597     103.698     101.335
  O     -247.240     103.735      99.949
  C     -249.090     103.960     101.488
  O     -249.583     104.973     100.623
  C     -249.659     102.568     101.189
  N     -251.009     102.389     101.721
  C     -252.071     102.826     100.934
  O     -251.959     103.282      99.793
  N     -253.316     102.724     101.502
  C     -253.592     102.261     102.764
  O     -254.725     102.217     103.224
  C     -252.424     101.825     103.548
  C     -251.210     101.910     103.001
  O     -245.993     103.001     105.845
  O     -248.322     103.868     106.517
  H     -245.737     103.332     106.727
  H     -249.386     104.705      99.701
  H     -254.094     103.033     100.946
  H     -252.606     101.461     104.553
  H     -250.333     101.604     103.562
  H     -249.658     102.379     100.108
  H     -249.313     104.257     102.519
  H     -247.002     104.423     101.890
  H     -246.762     101.684     101.215
  H     -246.837     101.151     103.604
  H     -245.955     102.686     103.383
  P     -245.678     103.638      99.588
  C     -245.926     101.044      99.355
  O     -245.503     102.263      98.769
  O     -245.037     103.337     101.019
  O     -245.158     104.861      98.904
  H     -245.590     102.754     101.574
  H     -245.736     100.238      98.677
  H     -246.974     101.094      99.565
  H     -245.387     100.880     100.265

 6  7  8  9  10  11  12  13  14  15  16  27  31  32  33  34  35 0
 6-311+G(2d,p)
 ****
 36  37 0
 6-311+G(2d,p)
 ****
 1  2  3  4  5  17  18  19  20  21  22  23  24  25 0
 3-21G
 ****
 26  28  29  30  38  39  40  41  42  43  44  45 0
 3-21G
 ****


