%nproc=1
%NoSave
%Mem=1900MB
#P OB98/GEN NMR

erre ene a

0 1
  C     -171.978    -139.722    -139.133
  O     -170.815    -140.513    -139.279
  H     -171.682    -138.713    -138.834
  H     -172.626    -140.142    -138.360
  H     -172.516    -139.665    -140.083
  P     -171.031    -142.056    -139.659
  C     -169.910    -141.870    -141.995
  O     -171.098    -142.129    -141.260
  C     -169.376    -143.173    -142.581
  O     -170.361    -143.753    -143.464
  C     -168.121    -143.007    -143.426
  O     -166.955    -142.865    -142.637
  C     -168.139    -144.299    -144.226
  O     -167.553    -145.383    -143.488
  C     -169.650    -144.532    -144.447
  N     -170.062    -144.206    -145.808
  C     -169.839    -145.194    -146.762
  O     -169.325    -146.282    -146.498
  N     -170.191    -144.878    -148.046
  C     -170.696    -143.684    -148.465
  O     -170.922    -143.439    -149.644
  C     -170.925    -142.679    -147.411
  C     -170.595    -142.977    -146.151
  O     -172.539    -142.334    -139.201
  O     -170.066    -143.004    -139.027
  H     -172.546    -142.824    -138.359
  H     -167.958    -146.201    -143.837
  H     -170.025    -145.576    -148.752
  H     -171.333    -141.720    -147.710
  H     -170.735    -142.247    -145.362
  H     -169.905    -145.584    -144.261
  H     -167.573    -144.205    -145.153
  H     -168.239    -142.162    -144.117
  H     -169.196    -143.876    -141.757
  H     -169.153    -141.442    -141.328
  H     -170.130    -141.145    -142.787
  P     -165.738    -141.998    -143.217
  C     -166.790    -139.692    -142.519
  O     -166.331    -140.544    -143.551
  O     -165.530    -142.675    -144.649
  O     -164.532    -141.992    -142.339
  H     -166.364    -142.962    -145.059
  H     -167.144    -138.776    -142.944
  H     -165.986    -139.485    -141.844
  H     -167.587    -140.171    -141.989

 6  7  8  9  10  11  12  13  14  15  16  27  31  32  33  34  35 0
 6-311+G(2d,p)
 ****
 36  37 0
 6-311+G(2d,p)
 ****
 1  2  3  4  5  17  18  19  20  21  22  23  24  25 0
 3-21G
 ****
 26  28  29  30  38  39  40  41  42  43  44  45 0
 3-21G
 ****


