%nproc=1
%NoSave
%Mem=1900MB
#P OB98/GEN NMR

erre ene a

0 1
  C      361.390    -391.750    -657.074
  O      361.213    -391.106    -655.823
  P      361.496    -389.525    -655.758
  C      359.988    -389.460    -653.644
  O      361.198    -389.030    -654.259
  C      360.091    -389.382    -652.126
  O      360.821    -390.553    -651.626
  C      360.831    -388.133    -651.604
  O      360.243    -387.728    -650.351
  C      362.219    -388.643    -651.313
  O      362.894    -387.815    -650.361
  C      361.920    -390.063    -650.826
  N      366.250    -391.505    -648.674
  C      365.209    -390.778    -648.140
  N      365.401    -390.307    -646.883
  N      364.100    -390.561    -648.762
  C      364.058    -391.082    -650.013
  C      365.021    -391.843    -650.646
  C      366.255    -392.079    -649.938
  O      367.231    -392.704    -650.366
  N      364.612    -392.246    -651.893
  C      363.425    -391.688    -652.047
  N      363.060    -390.958    -650.937
  O      360.277    -388.897    -656.603
  O      362.824    -389.108    -656.315
  H      363.782    -388.183    -650.263
  H      360.614    -388.603    -657.486
  H      367.102    -391.667    -648.156
  H      362.785    -391.768    -652.925
  H      361.608    -390.058    -649.784
  H      362.804    -388.651    -652.236
  H      366.267    -390.395    -646.378
  H      360.819    -387.284    -652.307
  H      364.661    -389.723    -646.495
  H      359.081    -389.448    -651.704
  H      359.761    -390.479    -653.940
  H      359.158    -388.817    -653.989
  P      359.198    -386.496    -650.433
  C      357.907    -387.240    -648.292
  O      358.696    -386.252    -648.943
  O      357.938    -387.144    -651.168
  O      359.730    -385.294    -651.150
  H      357.424    -386.455    -651.625
  H      358.450    -387.631    -647.439
  H      357.646    -388.069    -648.978
  H      356.973    -386.769    -647.968
  H      361.169    -392.792    -656.973
  H      362.403    -391.630    -657.397
  H      360.731    -391.314    -657.796

 3  4  5  6  7  8  9  10  11  12  23  26  30  31 0
 6-311+G(2d,p)
 ****
 33  35  36  37  38 0
 6-311+G(2d,p)
 ****
 1  2  13  14  15  16  17  18  19  20  21  22  24  25 0
 3-21G
 ****
 27  28  29  32  34  39  40  41  42  43  44  45  46  47  48  49 0
 3-21G
 ****


