%nproc=1
%NoSave
%Mem=1900MB
#P OB98/GEN NMR

erre ene a

0 1
  C       20.338       7.784     -30.786
  O       21.572       7.056     -30.795
  P       22.048       6.144     -32.028
  C       24.551       6.700     -31.755
  O       23.566       5.678     -31.791
  C       25.962       6.139     -31.961
  O       26.337       5.296     -30.829
  C       26.130       5.293     -33.236
  O       27.426       5.598     -33.762
  C       26.071       3.877     -32.684
  O       26.606       2.902     -33.560
  C       26.858       4.071     -31.385
  N       26.755       2.981     -30.420
  C       27.704       1.954     -30.494
  O       28.562       1.935     -31.374
  N       27.648       0.943     -29.565
  C       26.729       0.946     -28.652
  N       26.738      -0.080     -27.759
  C       25.701       1.995     -28.550
  C       25.774       2.970     -29.454
  O       21.827       6.780     -33.363
  O       21.206       4.788     -31.907
  H       20.993       4.462     -32.802
  H       27.563       3.063     -33.642
  H       24.956       1.964     -27.769
  H       25.070       3.796     -29.428
  H       27.913       4.250     -31.622
  H       25.026       3.618     -32.495
  H       25.380       5.503     -34.004
  H       26.664       6.982     -31.969
  H       27.468      -0.776     -27.855
  H       24.506       7.192     -30.779
  H       26.075      -0.172     -27.004
  H       24.320       7.445     -32.525
  P       27.565       6.140     -35.265
  C       29.453       7.838     -34.687
  O       29.052       6.712     -35.439
  O       26.699       7.491     -35.209
  O       27.048       5.243     -36.342
  H       26.372       7.698     -36.103
  H       30.453       7.653     -34.286
  H       28.775       8.046     -33.856
  H       29.491       8.710     -35.345
  H       20.243       8.314     -29.861
  H       19.521       7.102     -30.891
  H       20.329       8.480     -31.599

 3  4  5  6  7  8  9  10  11  12  13  24  27  28  29  30  32 0
 6-311+G(2d,p)
 ****
 34  35 0
 6-311+G(2d,p)
 ****
 1  2  14  15  16  17  18  19  20  21  22  23  25  26 0
 3-21G
 ****
 31  33  36  37  38  39  40  41  42  43  44  45  46 0
 3-21G
 ****


