%nproc=1
%NoSave
%Mem=1900MB
#P OB98/GEN NMR

erre ene a

0 1
  C     -280.149     129.985     111.298
  O     -279.887     128.672     110.804
  P     -279.391     128.536     109.288
  C     -277.114     129.821     109.024
  O     -277.788     128.603     109.291
  C     -275.592     129.603     108.918
  O     -275.068     129.364     110.249
  C     -275.166     128.394     108.088
  O     -273.793     128.551     107.726
  C     -275.295     127.271     109.097
  O     -274.567     126.115     108.693
  C     -274.816     127.941     110.404
  N     -275.496     127.436     111.615
  C     -275.015     126.265     112.210
  O     -274.051     125.627     111.784
  N     -275.705     125.815     113.304
  C     -276.781     126.427     113.878
  O     -277.413     125.936     114.809
  C     -277.158     127.721     113.303
  C     -276.521     128.152     112.211
  O     -279.840     129.914     108.622
  O     -279.952     127.350     108.573
  H     -274.855     125.381     109.280
  H     -280.617     129.777     108.044
  H     -275.407     124.935     113.703
  H     -277.968     128.272     113.773
  H     -276.806     129.102     111.758
  H     -273.738     127.794     110.553
  H     -276.346     126.975     109.190
  H     -275.773     128.214     107.198
  H     -275.125     130.521     108.533
  H     -277.340     130.551     109.809
  H     -277.492     130.248     108.085
  P     -273.450     128.833     106.182
  C     -273.371     131.401     106.273
  O     -272.619     130.208     106.146
  O     -274.595     128.743     105.230
  O     -272.322     127.737     105.864
  H     -272.252     127.612     104.894
  H     -272.740     132.166     106.742
  H     -274.262     131.253     106.883
  H     -273.664     131.749     105.278
  H     -280.470     129.925     112.317
  H     -280.916     130.441     110.708
  H     -279.257     130.573     111.239

 3  4  5  6  7  8  9  10  11  12  13  23  28  29  30  31  32 0
 6-311+G(2d,p)
 ****
 33  34 0
 6-311+G(2d,p)
 ****
 1  2  14  15  16  17  18  19  20  21  22  24  25  26  27 0
 3-21G
 ****
 35  36  37  38  39  40  41  42  43  44  45 0
 3-21G
 ****


