%nproc=1
%NoSave
%Mem=1900MB
#P OB98/GEN NMR

erre ene a

0 1
  C      -58.142     691.385     383.581
  O      -57.120     691.201     382.624
  H      -57.711     691.841     384.482
  H      -58.559     690.408     383.852
  H      -58.933     692.030     383.197
  P      -57.572     690.920     381.109
  C      -55.292     691.973     380.453
  O      -56.228     690.934     380.220
  C      -53.990     691.690     379.693
  O      -53.255     690.650     380.407
  C      -54.192     691.213     378.248
  O      -53.157     691.764     377.422
  C      -53.974     689.713     378.353
  O      -53.596     689.129     377.111
  C      -52.884     689.666     379.422
  N      -51.866     684.886     378.264
  C      -51.720     686.040     377.519
  N      -51.287     685.898     376.254
  N      -51.971     687.235     377.986
  C      -52.374     687.236     379.281
  C      -52.572     686.165     380.120
  C      -52.303     684.840     379.592
  O      -52.435     683.779     380.191
  N      -53.047     686.576     381.341
  C      -53.169     687.888     381.231
  N      -52.771     688.335     379.996
  O      -58.308     692.284     380.701
  O      -58.452     689.732     380.913
  H      -53.373     688.190     377.267
  H      -59.272     692.196     380.846
  H      -51.669     683.987     377.853
  H      -53.545     688.550     381.998
  H      -51.891     689.929     379.025
  H      -54.894     689.227     378.699
  H      -51.037     685.019     375.827
  H      -55.174     691.475     377.830
  H      -51.126     686.736     375.704
  H      -53.368     692.604     379.721
  H      -55.074     692.023     381.526
  H      -55.711     692.927     380.132
  P      -53.444     693.144     376.658
  C      -51.448     694.553     377.549
  O      -52.050     693.914     376.441
  O      -54.180     694.029     377.776
  O      -54.294     692.990     375.433
  H      -54.852     694.605     377.349
  H      -50.534     695.016     377.241
  H      -51.243     693.829     378.310
  H      -52.112     695.298     377.935

 6  7  8  9  10  11  12  13  14  15  26  29  33  34 0
 6-311+G(2d,p)
 ****
 36  38  39  40  41 0
 6-311+G(2d,p)
 ****
 1  2  3  4  5  16  17  18  19  20  21  22  23  24  25 0
 3-21G
 ****
 27  28  30  31  32  35  37  42  43  44  45  46  47 0
 3-21G
 ****
 48  49 0
 3-21G
 ****


