%nproc=1
%NoSave
%Mem=1900MB
#P OB98/GEN NMR

erre ene a

0 1
  C     -178.021    -234.645    -158.291
  O     -177.466    -235.239    -159.447
  H     -177.453    -233.740    -158.060
  H     -177.939    -235.331    -157.444
  H     -179.065    -234.373    -158.455
  P     -178.196    -236.510    -160.092
  C     -178.079    -236.309    -162.662
  O     -177.465    -236.822    -161.488
  C     -177.629    -234.867    -162.924
  O     -176.178    -234.832    -162.947
  C     -178.134    -234.297    -164.251
  O     -178.446    -232.916    -164.079
  C     -176.939    -234.442    -165.173
  O     -176.955    -233.490    -166.234
  C     -175.771    -234.260    -164.206
  N     -170.915    -233.528    -165.390
  C     -171.835    -232.663    -164.835
  N     -171.409    -231.409    -164.573
  N     -173.071    -232.995    -164.564
  C     -173.353    -234.288    -164.859
  C     -172.530    -235.241    -165.410
  C     -171.173    -234.854    -165.724
  O     -170.317    -235.571    -166.231
  N     -173.191    -236.433    -165.576
  C     -174.410    -236.198    -165.128
  N     -174.563    -234.909    -164.693
  O     -179.686    -236.406    -160.179
  O     -177.748    -237.734    -159.167
  H     -177.046    -232.603    -165.820
  H     -178.474    -238.014    -158.580
  H     -169.979    -233.216    -165.589
  H     -175.217    -236.921    -165.100
  H     -175.522    -233.205    -164.044
  H     -176.931    -235.447    -165.615
  H     -170.465    -231.091    -164.734
  H     -179.009    -234.828    -164.624
  H     -172.055    -230.764    -164.137
  H     -177.950    -234.245    -162.081
  H     -179.163    -236.335    -162.522
  H     -177.816    -236.945    -163.514
  P     -179.963    -232.493    -163.763
  C     -179.321    -230.610    -162.139
  O     -179.991    -230.944    -163.345
  O     -180.704    -233.408    -162.846
  O     -180.635    -232.475    -165.221
  H     -181.564    -232.772    -165.142
  H     -179.406    -229.558    -161.964
  H     -178.288    -230.876    -162.220
  H     -179.764    -231.144    -161.325

 6  7  8  9  10  11  12  13  14  15  26  29  33  34 0
 6-311+G(2d,p)
 ****
 36  38  39  40  41 0
 6-311+G(2d,p)
 ****
 1  2  3  4  5  16  17  18  19  20  21  22  23  24  25 0
 3-21G
 ****
 27  28  30  31  32  35  37  42  43  44  45  46  47 0
 3-21G
 ****
 48  49 0
 3-21G
 ****


