%nproc=1
%NoSave
%Mem=1900MB
#P OB98/GEN NMR

erre ene a

0 1
  C      357.093     357.811       7.588
  O      356.822     359.143       7.195
  H      356.321     357.487       8.287
  H      358.062     357.750       8.085
  H      357.078     357.147       6.718
  P      357.826     359.850       6.166
  C      360.303     359.131       6.031
  O      359.285     359.729       6.824
  C      361.355     358.492       6.926
  O      360.823     357.309       7.562
  C      362.620     358.056       6.186
  O      363.479     359.167       5.979
  C      363.178     357.037       7.165
  O      363.800     357.722       8.272
  C      361.895     356.328       7.637
  N      362.897     351.461       6.602
  C      363.552     352.343       7.445
  N      364.654     351.873       8.066
  N      363.169     353.580       7.641
  C      362.094     353.932       6.901
  C      361.375     353.152       6.018
  C      361.770     351.774       5.855
  O      361.209     350.953       5.127
  N      360.387     353.880       5.399
  C      360.487     355.082       5.932
  N      361.517     355.173       6.837
  O      357.469     361.245       5.745
  O      357.887     358.842       4.927
  H      364.168     357.028       8.855
  H      357.230     359.074       4.247
  H      363.254     350.529       6.483
  H      359.835     355.920       5.702
  H      361.965     355.991       8.679
  H      363.928     356.383       6.726
  H      365.141     351.052       7.737
  H      362.381     357.540       5.246
  H      365.175     352.520       8.650
  H      361.596     359.205       7.725
  H      360.748     359.922       5.418
  H      359.872     358.371       5.364
  P      364.653     359.109       4.879
  C      366.833     357.743       4.637
  O      365.695     358.029       5.438
  O      365.250     360.429       4.537
  O      364.003     358.354       3.634
  H      363.538     358.956       2.998
  H      367.439     357.010       5.127
  H      367.402     358.638       4.493
  H      366.515     357.366       3.688

 6  7  8  9  10  11  12  13  14  15  26  29  33  34 0
 6-311+G(2d,p)
 ****
 36  38  39  40  41 0
 6-311+G(2d,p)
 ****
 1  2  3  4  5  16  17  18  19  20  21  22  23  24  25 0
 3-21G
 ****
 27  28  30  31  32  35  37  42  43  44  45  46  47 0
 3-21G
 ****
 48  49 0
 3-21G
 ****


