%nproc=1
%NoSave
%Mem=1900MB
#P OB98/GEN NMR

erre ene a

0 1
  C      444.886     216.528    -131.204
  O      444.383     216.400    -132.515
  H      445.852     217.031    -131.247
  H      445.020     215.536    -130.763
  H      444.212     217.117    -130.579
  P      442.839     216.031    -132.721
  C      442.589     218.148    -134.180
  O      442.075     217.393    -133.097
  C      441.702     219.358    -134.483
  O      440.554     218.936    -135.262
  C      441.159     219.960    -133.183
  O      440.904     221.359    -133.305
  C      439.833     219.230    -133.003
  O      438.923     219.933    -132.162
  C      439.367     219.092    -134.446
  N      435.751     217.080    -137.405
  C      436.332     218.334    -137.456
  N      435.867     219.169    -138.428
  N      437.270     218.740    -136.642
  C      437.579     217.828    -135.694
  C      437.060     216.556    -135.514
  C      436.047     216.108    -136.457
  O      435.485     215.020    -136.437
  N      437.604     215.938    -134.425
  C      438.448     216.820    -133.931
  N      438.481     217.981    -134.676
  O      442.316     215.737    -131.239
  O      442.563     214.875    -133.636
  H      438.729     220.795    -132.588
  H      441.543     215.149    -131.260
  H      435.044     216.811    -138.071
  H      439.069     216.673    -133.049
  H      438.857     220.001    -134.778
  H      440.039     218.268    -132.522
  H      435.038     218.965    -138.953
  H      441.835     219.795    -132.335
  H      436.062     220.168    -138.289
  H      442.250     220.086    -135.091
  H      442.619     217.486    -135.049
  H      443.614     218.465    -133.967
  P      441.773     222.354    -132.393
  C      442.947     223.808    -134.240
  O      443.051     222.806    -133.245
  O      442.379     221.393    -131.253
  O      440.987     223.483    -131.819
  H      441.902     221.547    -130.412
  H      443.905     223.964    -134.691
  H      442.610     224.720    -133.794
  H      442.247     223.497    -134.987

 6  7  8  9  10  11  12  13  14  15  26  29  33  34 0
 6-311+G(2d,p)
 ****
 36  38  39  40  41 0
 6-311+G(2d,p)
 ****
 1  2  3  4  5  16  17  18  19  20  21  22  23  24  25 0
 3-21G
 ****
 27  28  30  31  32  35  37  42  43  44  45  46  47 0
 3-21G
 ****
 48  49 0
 3-21G
 ****


