%nproc=1
%NoSave
%Mem=1900MB
#P OB98/GEN NMR

erre ene a

0 1
  C      711.265     157.750      80.349
  O      711.200     159.124      80.696
  P      710.111     160.110      80.044
  C      712.196     161.531      79.444
  O      710.864     161.538      79.901
  C      712.739     162.968      79.377
  O      714.164     162.908      79.078
  C      712.072     163.842      78.318
  O      712.013     165.181      78.845
  C      713.044     163.766      77.154
  O      712.913     164.866      76.247
  C      714.380     163.714      77.903
  N      715.463     163.161      77.091
  C      716.312     164.074      76.433
  O      716.135     165.282      76.527
  N      717.347     163.568      75.680
  C      717.483     162.283      75.521
  N      718.548     161.830      74.822
  C      716.530     161.297      76.103
  C      715.584     161.802      76.879
  O      708.803     160.161      80.735
  O      710.034     159.642      78.513
  H      712.926     165.687      76.767
  H      709.399     158.890      78.373
  H      716.661     160.244      75.917
  H      714.864     161.162      77.369
  H      714.665     164.711      78.256
  H      712.876     162.845      76.582
  H      711.055     163.516      78.057
  H      712.638     163.416      80.371
  H      719.263     162.524      74.589
  H      712.213     161.108      78.431
  H      718.882     160.886      74.927
  H      712.810     160.908      80.093
  P      710.612     165.962      78.783
  C      710.240     165.968      76.209
  O      710.526     166.723      77.370
  O      710.888     167.182      79.806
  O      709.412     165.185      79.218
  H      710.031     167.487      80.153
  H      710.219     166.645      75.348
  H      709.268     165.485      76.308
  H      711.024     165.214      76.043
  H      712.056     157.281      80.896
  H      711.452     157.656      79.300
  H      710.336     157.277      80.590

 3  4  5  6  7  8  9  10  11  12  13  23  27  28  29  30  32 0
 6-311+G(2d,p)
 ****
 34  35 0
 6-311+G(2d,p)
 ****
 1  2  14  15  16  17  18  19  20  21  22  24  25  26 0
 3-21G
 ****
 31  33  36  37  38  39  40  41  42  43  44  45  46 0
 3-21G
 ****


