%nproc=1
%NoSave
%Mem=1900MB
#P OB98/GEN NMR

erre ene a

0 1
  C     -281.694     299.888    -551.182
  O     -281.507     299.502    -552.531
  P     -282.761     298.867    -553.308
  C     -284.315     300.955    -553.433
  O     -284.057     299.693    -552.831
  C     -285.568     300.874    -554.300
  O     -285.290     300.173    -555.535
  C     -286.731     300.121    -553.662
  O     -287.449     300.928    -552.747
  C     -287.573     299.805    -554.881
  O     -288.354     300.957    -555.249
  C     -286.511     299.512    -555.947
  N     -287.665     295.386    -558.644
  C     -287.972     296.715    -558.885
  N     -288.744     296.971    -559.963
  N     -287.557     297.702    -558.136
  C     -286.800     297.291    -557.079
  C     -286.426     296.009    -556.744
  C     -286.908     294.934    -557.579
  O     -286.718     293.729    -557.391
  N     -285.650     295.996    -555.622
  C     -285.546     297.262    -555.273
  N     -286.262     298.090    -556.105
  O     -282.946     297.443    -552.600
  O     -282.585     298.740    -554.789
  H     -288.757     300.764    -556.117
  H     -283.499     296.862    -553.155
  H     -288.019     294.665    -559.243
  H     -284.979     297.629    -554.426
  H     -286.790     299.921    -556.921
  H     -288.280     298.988    -554.706
  H     -289.152     296.253    -560.542
  H     -286.383     299.193    -553.200
  H     -289.032     297.927    -560.121
  H     -285.866     301.901    -554.558
  H     -283.459     301.242    -554.047
  H     -284.443     301.705    -552.647
  P     -288.176     300.172    -551.538
  C     -286.170     300.882    -550.039
  O     -287.010     299.829    -550.482
  O     -288.547     298.744    -552.164
  O     -289.377     300.875    -550.995
  H     -289.319     298.365    -551.712
  H     -285.625     300.540    -549.152
  H     -286.758     301.769    -549.773
  H     -285.450     301.131    -550.819
  H     -280.781     300.291    -550.797
  H     -281.979     299.035    -550.603
  H     -282.463     300.630    -551.127

 3  4  5  6  7  8  9  10  11  12  23  26  30  31 0
 6-311+G(2d,p)
 ****
 33  35  36  37  38 0
 6-311+G(2d,p)
 ****
 1  2  13  14  15  16  17  18  19  20  21  22  24  25 0
 3-21G
 ****
 27  28  29  32  34  39  40  41  42  43  44  45  46  47  48  49 0
 3-21G
 ****


