%nproc=1
%NoSave
%Mem=1900MB
#P OB98/GEN NMR

erre ene a

0 1
  C       34.436      75.511      64.260
  O       33.841      74.372      64.858
  P       33.179      73.282      63.882
  C       30.856      74.438      63.757
  O       32.033      74.048      63.059
  C       29.779      74.941      62.793
  O       28.574      75.224      63.543
  C       30.170      76.206      62.027
  O       29.631      76.103      60.708
  C       29.440      77.308      62.771
  O       29.212      78.444      61.939
  C       28.170      76.573      63.228
  N       27.538      77.223      64.371
  C       27.160      78.559      64.208
  O       27.434      79.154      63.166
  N       26.528      79.199      65.245
  C       26.386      78.593      66.382
  N       25.751      79.268      67.377
  C       26.882      77.226      66.634
  C       27.422      76.599      65.590
  O       32.354      72.355      64.889
  O       34.158      72.503      63.065
  H       28.857      79.168      62.503
  H       32.326      71.433      64.569
  H       26.771      76.779      67.612
  H       27.792      75.587      65.676
  H       27.440      76.518      62.410
  H       30.032      77.629      63.638
  H       31.252      76.354      61.974
  H       29.544      74.131      62.092
  H       25.434      80.209      67.184
  H       31.104      75.251      64.445
  H       25.596      78.876      68.296
  H       30.486      73.593      64.345
  P       30.666      75.970      59.490
  C       30.034      78.244      58.480
  O       31.046      77.479      59.104
  O       29.686      75.569      58.283
  O       31.790      74.998      59.617
  H       30.211      75.394      57.480
  H       30.378      79.279      58.399
  H       29.117      78.222      59.072
  H       29.842      77.859      57.475
  H       34.834      76.147      65.023
  H       33.698      76.045      63.699
  H       35.225      75.200      63.607

 3  4  5  6  7  8  9  10  11  12  13  21  23  27  28  29  30  32 0
 6-311+G(2d,p)
 ****
 34  35 0
 6-311+G(2d,p)
 ****
 1  2  14  15  16  17  18  19  20  22  24  25  26 0
 3-21G
 ****
 31  33  36  37  38  39  40  41  42  43  44  45  46 0
 3-21G
 ****


