%nproc=1
%NoSave
%Mem=1900MB
#P OB98/GEN NMR

erre ene a

0 1
  C     -428.621    -898.016     -12.356
  O     -428.431    -898.706     -11.116
  P     -426.920    -899.007     -10.625
  C     -427.172    -897.927      -8.257
  O     -426.903    -899.102      -9.029
  C     -427.513    -898.312      -6.819
  O     -428.870    -898.805      -6.731
  C     -426.660    -899.453      -6.249
  O     -425.368    -898.977      -5.856
  C     -427.511    -899.906      -5.071
  O     -427.298    -899.061      -3.918
  C     -428.938    -899.734      -5.616
  N     -429.559    -900.993      -6.000
  C     -430.938    -901.041      -5.931
  O     -431.636    -900.099      -5.514
  N     -431.518    -902.227      -6.319
  C     -430.863    -903.365      -6.694
  O     -431.436    -904.397      -7.016
  C     -429.399    -903.274      -6.665
  C     -428.823    -902.122      -6.330
  O     -426.194    -897.608     -10.896
  O     -426.208    -900.116     -11.355
  H     -426.463    -899.366      -3.505
  H     -425.230    -897.756     -11.071
  H     -432.531    -902.278      -6.300
  H     -428.843    -904.159      -6.942
  H     -427.734    -902.044      -6.288
  H     -429.574    -899.249      -4.875
  H     -427.280    -900.936      -4.759
  H     -426.579    -900.268      -6.988
  H     -427.444    -897.421      -6.192
  H     -428.020    -897.402      -8.693
  H     -426.295    -897.283      -8.272
  P     -424.256    -900.117      -5.555
  C     -422.507    -898.922      -7.082
  O     -422.851    -899.395      -5.807
  O     -424.462    -901.098      -6.811
  O     -424.469    -900.765      -4.217
  H     -424.705    -900.607      -7.607
  H     -423.384    -898.551      -7.613
  H     -422.025    -899.706      -7.648
  H     -421.788    -898.101      -6.962
  H     -429.668    -897.894     -12.540
  H     -428.183    -898.583     -13.151
  H     -428.154    -897.055     -12.305

 3  4  5  6  7  8  9  10  11  12  13  23  28  29  30  31  32 0
 6-311+G(2d,p)
 ****
 33  34 0
 6-311+G(2d,p)
 ****
 1  2  14  15  16  17  18  19  20  21  22  24  25  26 0
 3-21G
 ****
 27  35  36  37  38  39  40  41  42  43  44  45 0
 3-21G
 ****


