%nproc=1
%NoSave
%Mem=1900MB
#P OB98/GEN NMR

erre ene a

0 1
  C     -101.126    -178.586    -148.864
  O     -100.607    -178.767    -147.562
  H     -102.217    -178.623    -148.819
  H     -100.773    -179.383    -149.523
  H     -100.823    -177.614    -149.266
  P      -99.020    -178.631    -147.384
  C      -98.553    -181.185    -147.587
  O      -98.371    -179.890    -148.142
  C      -97.191    -181.845    -147.357
  O      -96.606    -182.162    -148.649
  C      -96.197    -180.942    -146.612
  O      -95.399    -181.746    -145.741
  C      -95.336    -180.378    -147.728
  O      -94.050    -179.950    -147.299
  C      -95.288    -181.570    -148.692
  N      -94.940    -181.180    -150.055
  C      -93.588    -181.101    -150.373
  O      -92.668    -181.409    -149.613
  N      -93.301    -180.641    -151.634
  C      -94.207    -180.240    -152.572
  O      -93.890    -179.816    -153.676
  C      -95.621    -180.338    -152.174
  C      -95.916    -180.794    -150.952
  O      -98.790    -178.978    -145.836
  O      -98.438    -177.314    -147.768
  H      -98.834    -178.168    -145.297
  H      -93.534    -180.743    -147.051
  H      -92.324    -180.579    -151.882
  H      -96.371    -180.021    -152.888
  H      -96.948    -180.863    -150.623
  H      -94.580    -182.326    -148.328
  H      -95.838    -179.524    -148.196
  H      -96.688    -180.154    -146.041
  H      -97.339    -182.793    -146.826
  H      -99.135    -181.796    -148.285
  H      -99.097    -181.101    -146.642
  P      -95.317    -181.307    -144.196
  C      -93.160    -179.832    -144.344
  O      -94.569    -179.886    -144.185
  O      -94.230    -182.333    -143.634
  O      -96.645    -181.343    -143.512
  H      -93.518    -182.531    -144.263
  H      -92.836    -178.813    -144.312
  H      -92.891    -180.262    -145.286
  H      -92.691    -180.381    -143.554

 6  7  8  9  10  11  12  13  14  15  16  27  31  32  33  34  35 0
 6-311+G(2d,p)
 ****
 36  37 0
 6-311+G(2d,p)
 ****
 1  2  3  4  5  17  18  19  20  21  22  23  24  25 0
 3-21G
 ****
 26  28  29  30  38  39  40  41  42  43  44  45 0
 3-21G
 ****


