%nproc=1
%NoSave
%Mem=1900MB
#P OB98/GEN NMR

erre ene a

0 1
  C      -21.551      35.483       2.868
  O      -22.338      36.632       3.128
  P      -23.360      36.580       4.366
  C      -23.016      36.219       6.924
  O      -22.546      35.973       5.609
  C      -23.064      34.918       7.728
  O      -24.124      34.083       7.193
  C      -21.774      34.092       7.691
  O      -21.670      33.422       8.953
  C      -22.049      33.076       6.598
  O      -21.222      31.921       6.699
  C      -23.535      32.819       6.818
  N      -27.504      30.270       4.995
  C      -27.129      30.505       6.306
  N      -27.965      30.043       7.259
  N      -26.036      31.135       6.648
  C      -25.309      31.552       5.585
  C      -25.553      31.348       4.248
  C      -26.783      30.683       3.882
  O      -27.197      30.530       2.736
  N      -24.540      31.841       3.470
  C      -23.725      32.415       4.332
  N      -24.171      32.306       5.621
  O      -24.357      35.401       3.955
  O      -24.075      37.858       4.671
  H      -20.291      32.212       6.617
  H      -25.150      35.751       3.503
  H      -28.366      29.795       4.793
  H      -22.808      32.923       4.082
  H      -23.722      32.101       7.627
  H      -21.870      33.533       5.617
  H      -28.838      29.576       7.067
  H      -20.877      34.687       7.500
  H      -27.731      30.230       8.227
  H      -23.332      35.163       8.763
  H      -24.029      36.630       6.866
  H      -22.372      36.956       7.413
  P      -20.219      32.927       9.422
  C      -18.094      34.218      10.144
  O      -19.218      34.167       9.288
  O      -19.770      31.960       8.224
  O      -20.196      32.200      10.727
  H      -19.207      31.245       8.575
  H      -17.333      34.854       9.686
  H      -17.669      33.224      10.311
  H      -18.387      34.652      11.103
  H      -20.924      35.665       2.021
  H      -22.192      34.650       2.665
  H      -20.943      35.266       3.722

 3  4  5  6  7  8  9  10  11  12  23  26  30  31 0
 6-311+G(2d,p)
 ****
 33  35  36  37  38 0
 6-311+G(2d,p)
 ****
 1  2  13  14  15  16  17  18  19  20  21  22  24  25 0
 3-21G
 ****
 27  28  29  32  34  39  40  41  42  43  44  45  46  47  48  49 0
 3-21G
 ****


