%nproc=1
%NoSave
%Mem=1900MB
#P OB98/GEN NMR

erre ene a

0 1
  C      179.644    -614.561     356.442
  O      180.102    -615.901     356.521
  H      179.474    -614.193     357.458
  H      178.703    -614.515     355.893
  H      180.394    -613.927     355.961
  P      180.578    -616.635     355.178
  C      182.871    -617.550     355.930
  O      181.513    -617.864     355.619
  C      183.411    -618.579     356.929
  O      182.800    -618.387     358.227
  C      183.122    -620.028     356.545
  O      183.990    -620.462     355.511
  C      183.327    -620.728     357.881
  O      184.727    -620.947     358.138
  C      182.737    -619.692     358.869
  N      181.379    -620.005     359.282
  C      181.027    -619.636     360.593
  O      181.815    -619.112     361.379
  N      179.747    -619.934     360.968
  C      178.839    -620.638     360.228
  O      177.727    -620.959     360.648
  C      179.263    -621.022     358.884
  C      180.496    -620.688     358.470
  O      181.151    -615.753     354.126
  O      179.246    -617.371     354.665
  H      185.015    -621.636     357.504
  H      178.880    -616.885     353.903
  H      179.482    -619.691     361.910
  H      178.559    -621.565     358.260
  H      180.826    -620.969     357.483
  H      183.371    -619.619     359.764
  H      182.830    -621.689     357.921
  H      182.076    -620.128     356.243
  H      184.496    -618.414     357.036
  H      182.906    -616.550     356.385
  H      183.457    -617.556     355.013
  P      183.375    -621.032     354.143
  C      185.410    -620.255     352.764
  O      184.594    -621.364     353.160
  O      182.282    -620.206     353.542
  O      182.839    -622.485     354.551
  H      181.873    -622.529     354.397
  H      186.186    -620.598     352.112
  H      185.846    -619.805     353.632
  H      184.808    -619.534     352.253

 6  7  8  9  10  11  12  13  14  15  16  26  31  32  33  34  35 0
 6-311+G(2d,p)
 ****
 36  37 0
 6-311+G(2d,p)
 ****
 1  2  3  4  5  17  18  19  20  21  22  23  24  25 0
 3-21G
 ****
 27  28  29  30  38  39  40  41  42  43  44  45 0
 3-21G
 ****


