%nproc=1
%NoSave
%Mem=1900MB
#P OB98/GEN NMR

erre ene a

0 1
  C     -729.802     183.249     282.205
  O     -729.612     183.357     280.812
  P     -729.987     184.708     280.045
  C     -727.909     185.622     278.842
  O     -728.688     185.654     280.035
  C     -726.417     185.706     279.198
  O     -725.982     184.461     279.799
  C     -725.514     185.915     277.979
  O     -725.547     187.266     277.542
  C     -724.163     185.472     278.548
  O     -723.557     186.525     279.313
  C     -724.578     184.312     279.464
  N     -723.622     179.393     280.497
  C     -723.631     180.487     281.277
  N     -723.856     181.775     280.928
  C     -724.066     181.875     279.607
  C     -724.053     180.839     278.659
  C     -723.836     179.544     279.163
  N     -723.887     178.399     278.377
  N     -724.280     181.339     277.391
  C     -724.419     182.635     277.549
  N     -724.368     182.998     278.867
  O     -731.250     185.376     280.510
  O     -730.121     184.263     278.514
  H     -722.649     186.224     279.527
  H     -731.025     184.438     278.195
  H     -723.444     180.326     282.337
  H     -724.574     183.352     276.759
  H     -724.022     184.326     280.414
  H     -723.457     185.184     277.755
  H     -725.803     185.238     277.165
  H     -726.284     186.509     279.924
  H     -728.187     186.477     278.214
  H     -723.870     177.520     278.868
  H     -724.351     178.466     277.482
  H     -728.117     184.698     278.296
  P     -725.408     187.595     275.977
  C     -727.353     189.283     276.035
  O     -726.865     188.079     275.481
  O     -724.758     186.537     275.152
  O     -724.557     188.963     275.968
  H     -723.997     188.979     275.168
  H     -727.739     189.083     277.044
  H     -728.159     189.656     275.404
  H     -726.561     190.041     276.099
  H     -729.495     182.278     282.533
  H     -730.837     183.393     282.436
  H     -729.218     183.994     282.703

 3  4  5  6  7  8  9  10  11  12  22  25  29  30  31  32 0
 6-311+G(2d,p)
 ****
 33  36  37 0
 6-311+G(2d,p)
 ****
 1  2  13  14  15  16  17  18  19  20  21  23  24  26 0
 3-21G
 ****
 27  28  34  35  38  39  40  41  42  43  44  45  46  47  48 0
 3-21G
 ****


