%nproc=1
%NoSave
%Mem=1900MB
#P OB98/GEN NMR

erre ene a

0 1
  C     -365.604    -551.990     -58.220
  O     -364.593    -551.161     -57.667
  P     -364.674    -550.640     -56.152
  C     -364.591    -548.222     -57.040
  O     -365.299    -549.161     -56.233
  C     -363.491    -547.519     -56.245
  O     -362.641    -546.761     -57.147
  C     -364.002    -546.551     -55.160
  O     -363.060    -546.615     -54.085
  C     -363.914    -545.210     -55.864
  O     -363.914    -544.111     -54.956
  C     -362.628    -545.388     -56.684
  N     -362.540    -544.439     -57.788
  C     -362.180    -543.123     -57.462
  O     -362.024    -542.801     -56.282
  N     -362.051    -542.205     -58.470
  C     -362.370    -542.533     -59.683
  N     -362.224    -541.571     -60.644
  C     -362.877    -543.870     -60.060
  C     -362.926    -544.774     -59.068
  O     -363.407    -550.743     -55.374
  O     -365.881    -551.484     -55.525
  H     -363.250    -544.286     -54.256
  H     -365.587    -552.405     -55.311
  H     -363.178    -544.083     -61.069
  H     -363.281    -545.772     -59.245
  H     -361.742    -545.269     -56.045
  H     -364.775    -545.087     -56.534
  H     -365.007    -546.781     -54.806
  H     -362.860    -548.296     -55.786
  H     -361.853    -540.679     -60.349
  H     -365.309    -547.474     -57.393
  H     -362.357    -541.757     -61.626
  H     -364.174    -548.728     -57.920
  P     -363.541    -546.675     -52.559
  C     -362.044    -544.710     -51.875
  O     -363.370    -545.202     -51.955
  O     -362.925    -547.767     -51.741
  O     -365.135    -546.852     -52.655
  H     -365.479    -547.154     -51.787
  H     -362.072    -543.624     -51.718
  H     -361.494    -544.928     -52.792
  H     -361.529    -545.176     -51.028
  H     -365.359    -552.222     -59.235
  H     -366.543    -551.477     -58.188
  H     -365.672    -552.895     -57.654

 3  4  5  6  7  8  9  10  11  12  13  23  27  28  29  30  32 0
 6-311+G(2d,p)
 ****
 34  35 0
 6-311+G(2d,p)
 ****
 1  2  14  15  16  17  18  19  20  21  22  24  25  26 0
 3-21G
 ****
 31  33  36  37  38  39  40  41  42  43  44  45  46 0
 3-21G
 ****


