%nproc=1
%NoSave
%Mem=1900MB
#P OB98/GEN NMR

erre ene a

0 1
  C      -67.396      68.725     -85.761
  O      -68.158      68.650     -84.569
  P      -67.523      67.815     -83.350
  C      -69.044      65.737     -83.785
  O      -67.731      66.268     -83.708
  C      -68.979      64.253     -84.150
  O      -68.415      64.085     -85.465
  C      -68.121      63.416     -83.209
  O      -68.851      63.071     -82.046
  C      -67.775      62.224     -84.095
  O      -68.857      61.274     -84.125
  C      -67.588      62.889     -85.467
  N      -63.339      61.321     -87.713
  C      -64.507      60.632     -87.440
  N      -64.564      59.354     -87.872
  N      -65.526      61.150     -86.808
  C      -65.323      62.434     -86.425
  C      -64.207      63.215     -86.621
  C      -63.109      62.645     -87.368
  O      -62.096      63.241     -87.719
  N      -64.362      64.460     -86.069
  C      -65.581      64.438     -85.568
  N      -66.214      63.241     -85.776
  O      -68.550      68.082     -82.155
  O      -66.117      68.181     -82.994
  H      -68.605      60.518     -84.684
  H      -68.219      68.784     -81.563
  H      -62.595      60.874     -88.218
  H      -66.056      65.269     -85.068
  H      -67.945      62.252     -86.285
  H      -66.896      61.684     -83.734
  H      -63.811      58.881     -88.343
  H      -67.204      63.956     -82.945
  H      -65.412      58.834     -87.677
  H      -70.006      63.869     -84.176
  H      -69.605      66.274     -84.556
  H      -69.544      65.876     -82.821
  P      -68.042      62.986     -80.663
  C      -67.553      60.455     -80.976
  O      -67.026      61.755     -80.785
  O      -69.147      62.473     -79.623
  O      -67.437      64.275     -80.220
  H      -68.996      62.891     -78.754
  H      -66.828      59.864     -81.540
  H      -68.499      60.476     -81.524
  H      -67.712      59.986     -80.002
  H      -67.927      69.304     -86.488
  H      -67.232      67.739     -86.142
  H      -66.454      69.189     -85.554

 3  4  5  6  7  8  9  10  11  12  23  26  30  31 0
 6-311+G(2d,p)
 ****
 33  35  36  37  38 0
 6-311+G(2d,p)
 ****
 1  2  13  14  15  16  17  18  19  20  21  22  24  25 0
 3-21G
 ****
 27  28  29  32  34  39  40  41  42  43  44  45  46  47  48  49 0
 3-21G
 ****


