%nproc=1
%NoSave
%Mem=1900MB
#P OB98/GEN NMR

erre ene a

0 1
  C     -147.902     121.538     -13.080
  O     -148.916     122.433     -13.488
  H     -147.842     121.551     -11.989
  H     -146.933     121.837     -13.487
  H     -148.144     120.522     -13.404
  P     -149.105     122.725     -15.052
  C     -147.203     124.394     -15.535
  O     -147.645     123.046     -15.635
  C     -146.084     124.673     -16.538
  O     -146.536     124.269     -17.859
  C     -145.675     126.150     -16.606
  O     -144.262     126.216     -16.801
  C     -146.407     126.640     -17.837
  O     -145.786     127.784     -18.390
  C     -146.402     125.401     -18.737
  N     -147.479     125.459     -19.725
  C     -147.643     126.673     -20.399
  O     -146.893     127.621     -20.162
  N     -148.688     126.810     -21.275
  C     -149.534     125.841     -21.424
  N     -150.571     126.057     -22.278
  C     -149.418     124.552     -20.713
  C     -148.377     124.430     -19.889
  O     -150.154     123.723     -15.412
  O     -149.432     121.283     -15.667
  H     -145.805     128.514     -17.734
  H     -150.396     121.134     -15.675
  H     -150.152     123.777     -20.868
  H     -148.218     123.524     -19.317
  H     -145.445     125.306     -19.266
  H     -147.437     126.910     -17.571
  H     -145.957     126.713     -15.711
  H     -145.225     124.039     -16.289
  H     -150.623     126.965     -22.723
  H     -146.831     124.550     -14.517
  H     -151.313     125.395     -22.443
  H     -148.043     125.073     -15.710
  P     -143.260     126.150     -15.550
  C     -142.681     128.609     -15.148
  O     -143.422     127.489     -14.677
  O     -141.849     125.801     -15.896
  O     -143.900     125.020     -14.608
  H     -143.189     124.575     -14.110
  H     -142.853     129.447     -14.505
  H     -142.995     128.852     -16.142
  H     -141.638     128.371     -15.152

 6  7  8  9  10  11  12  13  14  15  16  26  30  31  32  33  35 0
 6-311+G(2d,p)
 ****
 37  38 0
 6-311+G(2d,p)
 ****
 1  2  3  4  5  17  18  19  20  21  22  23  24  25 0
 3-21G
 ****
 27  28  29  34  36  39  40  41  42  43  44  45  46 0
 3-21G
 ****


