%nproc=1
%NoSave
%Mem=1900MB
#P OB98/GEN NMR

erre ene a

0 1
  C     -814.695     279.469    -498.235
  O     -814.768     280.865    -498.534
  P     -814.590     281.343    -500.058
  C     -816.321     283.245    -500.229
  O     -816.002     281.900    -500.579
  C     -817.215     283.288    -498.989
  O     -816.496     282.882    -497.803
  C     -817.744     284.676    -498.680
  O     -818.776     285.036    -499.583
  C     -818.171     284.523    -497.232
  O     -819.480     283.921    -497.146
  C     -817.110     283.555    -496.680
  N     -816.102     284.209    -495.849
  C     -816.500     284.512    -494.538
  O     -817.646     284.260    -494.158
  N     -815.592     285.112    -493.708
  C     -814.398     285.385    -494.136
  N     -813.537     285.977    -493.262
  C     -813.955     285.094    -495.513
  C     -814.857     284.523    -496.312
  O     -813.912     280.369    -500.964
  O     -813.726     282.688    -499.903
  H     -819.652     283.777    -496.194
  H     -813.173     282.798    -500.702
  H     -812.943     285.341    -495.827
  H     -814.608     284.283    -497.339
  H     -817.582     282.770    -496.071
  H     -818.229     285.482    -496.713
  H     -816.923     285.406    -498.750
  H     -818.055     282.599    -499.149
  H     -813.879     286.177    -492.332
  H     -816.833     283.723    -501.074
  H     -812.577     286.185    -493.491
  H     -815.393     283.798    -500.071
  P     -818.446     286.161    -500.684
  C     -818.945     284.588    -502.686
  O     -817.998     285.413    -502.021
  O     -817.080     286.798    -500.143
  O     -819.501     287.203    -500.844
  H     -817.063     287.751    -500.359
  H     -818.605     284.419    -503.708
  H     -819.936     285.057    -502.712
  H     -819.012     283.627    -502.171
  H     -814.833     279.322    -497.184
  H     -813.737     279.092    -498.525
  H     -815.461     278.949    -498.772

 3  4  5  6  7  8  9  10  11  12  13  23  27  28  29  30  32 0
 6-311+G(2d,p)
 ****
 34  35 0
 6-311+G(2d,p)
 ****
 1  2  14  15  16  17  18  19  20  21  22  24  25  26 0
 3-21G
 ****
 31  33  36  37  38  39  40  41  42  43  44  45  46 0
 3-21G
 ****


