%nproc=1
%NoSave
%Mem=1900MB
#P OB98/GEN NMR

erre ene a

0 1
  C      252.620    -296.452    -414.212
  O      253.450    -295.403    -413.711
  P      252.795    -293.940    -413.580
  C      252.512    -293.534    -416.153
  O      251.884    -293.751    -414.893
  C      252.289    -292.080    -416.611
  O      253.030    -291.850    -417.858
  C      250.821    -291.701    -416.860
  O      250.672    -290.341    -416.430
  C      250.698    -291.793    -418.372
  O      249.604    -291.026    -418.860
  C      252.083    -291.308    -418.801
  N      252.417    -291.687    -420.175
  C      251.893    -290.897    -421.200
  O      251.121    -289.961    -420.993
  N      252.257    -291.251    -422.472
  C      253.006    -292.343    -422.821
  O      253.306    -292.605    -423.976
  C      253.435    -293.203    -421.704
  C      253.124    -292.843    -420.455
  O      254.066    -293.006    -413.836
  O      252.098    -293.728    -412.273
  H      254.682    -293.354    -414.498
  H      249.577    -291.094    -419.836
  H      251.916    -290.666    -423.225
  H      253.990    -294.103    -421.945
  H      253.406    -293.467    -419.612
  H      252.140    -290.212    -418.731
  H      250.547    -292.838    -418.663
  H      250.130    -292.337    -416.319
  H      252.730    -291.419    -415.854
  H      252.082    -294.203    -416.903
  H      253.580    -293.768    -416.072
  P      250.064    -290.066    -414.962
  C      247.701    -289.115    -415.613
  O      248.469    -290.185    -415.088
  O      250.297    -288.486    -414.850
  O      250.712    -290.833    -413.850
  H      250.021    -287.999    -415.653
  H      246.699    -289.480    -415.829
  H      248.150    -288.718    -416.526
  H      247.635    -288.314    -414.862
  H      253.179    -297.364    -414.246
  H      252.285    -296.202    -415.197
  H      251.774    -296.576    -413.568

 3  4  5  6  7  8  9  10  11  12  13  24  28  29  30  31  32 0
 6-311+G(2d,p)
 ****
 33  34 0
 6-311+G(2d,p)
 ****
 1  2  14  15  16  17  18  19  20  21  22  23  25  26  27 0
 3-21G
 ****
 35  36  37  38  39  40  41  42  43  44  45 0
 3-21G
 ****


