%nproc=1
%NoSave
%Mem=1900MB
#P OB98/GEN NMR

erre ene a

0 1
  C       35.207    -118.195     353.215
  O       34.659    -119.398     352.662
  P       35.436    -120.774     352.932
  C       34.107    -121.360     355.093
  O       35.372    -121.097     354.503
  C       34.209    -122.524     356.084
  O       35.380    -122.415     356.918
  C       33.033    -122.614     357.045
  O       31.920    -123.264     356.452
  C       33.622    -123.477     358.151
  O       33.587    -124.863     357.758
  C       35.071    -122.980     358.214
  N       36.432    -122.155     363.083
  C       36.264    -123.293     362.374
  N       35.882    -123.432     361.086
  C       35.681    -122.233     360.520
  C       35.812    -120.989     361.114
  C       36.206    -120.973     362.463
  N       36.376    -119.809     363.179
  N       35.508    -119.983     360.221
  C       35.216    -120.610     359.100
  N       35.298    -121.970     359.232
  O       36.970    -120.375     352.704
  O       35.021    -121.891     352.034
  H       32.651    -125.095     357.616
  H       37.452    -121.128     352.315
  H       36.462    -124.216     362.912
  H       34.946    -120.124     358.171
  H       35.782    -123.793     358.398
  H       33.065    -123.398     359.088
  H       32.773    -121.621     357.440
  H       34.282    -123.455     355.505
  H       33.372    -121.591     354.317
  H       36.690    -119.877     364.134
  H       36.233    -118.926     362.714
  H       33.752    -120.452     355.592
  P       30.481    -122.581     356.643
  C       30.835    -121.101     354.537
  O       30.580    -121.152     355.926
  O       30.453    -122.234     358.206
  O       29.332    -123.440     356.238
  H       29.536    -122.265     358.539
  H       30.571    -120.107     354.169
  H       30.241    -121.842     354.000
  H       31.897    -121.276     354.350
  H       34.584    -117.366     352.953
  H       36.191    -118.039     352.825
  H       35.255    -118.282     354.280

 3  4  5  6  7  8  9  10  11  12  22  25  29  30  31  32 0
 6-311+G(2d,p)
 ****
 33  36  37 0
 6-311+G(2d,p)
 ****
 1  2  13  14  15  16  17  18  19  20  21  23  24  26 0
 3-21G
 ****
 27  28  34  35  38  39  40  41  42  43  44  45  46  47  48 0
 3-21G
 ****


