%nproc=1
%NoSave
%Mem=1900MB
#P OB98/GEN NMR

erre ene a

0 1
  C       29.686     160.910     127.654
  O       29.750     161.292     126.275
  P       31.084     161.114     125.400
  C       33.562     161.811     125.503
  O       32.278     161.914     126.113
  C       34.472     162.979     125.897
  O       34.113     164.173     125.176
  C       34.422     163.348     127.377
  O       35.198     162.445     128.143
  C       34.948     164.780     127.343
  O       36.385     164.788     127.278
  C       34.350     165.308     126.034
  N       32.299     169.991     126.150
  C       33.553     169.560     125.891
  N       34.023     168.295     125.884
  C       33.038     167.423     126.158
  C       31.713     167.714     126.446
  C       31.347     169.071     126.438
  N       30.074     169.508     126.715
  N       31.003     166.559     126.703
  C       31.881     165.586     126.554
  N       33.122     166.056     126.225
  O       30.914     161.433     123.950
  O       31.497     159.579     125.596
  H       36.658     165.676     126.986
  H       31.987     159.268     124.812
  H       34.277     170.338     125.661
  H       31.664     164.533     126.669
  H       35.052     165.960     125.502
  H       34.658     165.358     128.226
  H       33.385     163.350     127.728
  H       35.497     162.718     125.603
  H       33.428     161.803     124.415
  H       29.901     170.500     126.722
  H       29.370     168.831     126.978
  H       34.019     160.863     125.809
  P       34.503     161.550     129.273
  C       33.805     161.846     131.725
  O       34.367     162.466     130.585
  O       35.112     160.206     129.499
  O       32.985     161.422     128.777
  H       32.614     160.576     129.090
  H       32.716     161.821     131.630
  H       34.072     162.432     132.609
  H       34.188     160.829     131.847
  H       28.708     161.116     128.036
  H       30.411     161.465     128.212
  H       29.891     159.864     127.744

 3  4  5  6  7  8  9  10  11  12  22  25  29  30  31  32 0
 6-311+G(2d,p)
 ****
 33  36  37 0
 6-311+G(2d,p)
 ****
 1  2  13  14  15  16  17  18  19  20  21  23  24  26 0
 3-21G
 ****
 27  28  34  35  38  39  40  41  42  43  44  45  46  47  48 0
 3-21G
 ****


