%nproc=1
%NoSave
%Mem=1900MB
#P OB98/GEN NMR

erre ene a

0 1
  C      883.989     429.535      65.132
  O      882.644     429.704      64.734
  P      882.073     429.050      63.384
  C      881.502     430.020      61.064
  O      882.311     430.149      62.238
  C      881.462     431.335      60.277
  O      880.521     432.254      60.915
  C      882.820     432.067      60.178
  O      882.821     432.706      58.899
  C      882.708     433.092      61.283
  O      883.636     434.171      61.126
  C      881.234     433.479      61.207
  N      880.758     434.112      62.427
  C      880.761     435.510      62.457
  O      881.218     436.145      61.506
  N      880.293     436.152      63.580
  C      879.955     435.447      64.617
  N      879.486     436.139      65.697
  C      880.060     433.989      64.681
  C      880.447     433.377      63.554
  O      880.677     428.527      63.478
  O      883.156     427.932      63.018
  H      883.676     434.665      61.969
  H      883.039     427.134      63.594
  H      879.812     433.453      65.586
  H      880.550     432.301      63.497
  H      881.058     434.173      60.357
  H      882.930     432.621      62.253
  H      883.676     431.404      60.279
  H      881.078     431.121      59.268
  H      879.421     437.145      65.605
  H      880.490     429.766      61.382
  H      879.119     435.693      66.533
  H      881.882     429.205      60.443
  P      884.164     432.801      58.015
  C      885.225     434.976      57.208
  O      884.836     434.215      58.337
  O      883.973     432.496      56.560
  O      885.170     431.746      58.715
  H      885.899     431.551      58.101
  H      885.410     436.024      57.527
  H      884.456     434.972      56.439
  H      886.153     434.575      56.778
  H      884.155     430.051      66.055
  H      884.637     429.933      64.379
  H      884.194     428.493      65.264

 3  4  5  6  7  8  9  10  11  12  13  23  27  28  29  30  32 0
 6-311+G(2d,p)
 ****
 34  35 0
 6-311+G(2d,p)
 ****
 1  2  14  15  16  17  18  19  20  21  22  24  25  26 0
 3-21G
 ****
 31  33  36  37  38  39  40  41  42  43  44  45  46 0
 3-21G
 ****


