%nproc=1
%NoSave
%Mem=1900MB
#P OB98/GEN NMR

erre ene a

0 1
  C      508.280    -172.923     -52.438
  O      509.281    -173.917     -52.239
  P      510.537    -173.948     -53.232
  C      512.280    -173.084     -51.439
  O      511.671    -172.958     -52.704
  C      513.248    -171.911     -51.222
  O      512.551    -170.654     -51.357
  C      513.902    -171.913     -49.843
  O      515.072    -172.713     -49.812
  C      514.171    -170.440     -49.620
  O      515.335    -170.025     -50.358
  C      512.893    -169.806     -50.223
  N      511.704    -169.676     -49.354
  C      511.270    -168.413     -48.959
  O      511.818    -167.362     -49.281
  N      510.150    -168.382     -48.170
  C      509.336    -169.438     -47.883
  O      508.312    -169.342     -47.219
  C      509.757    -170.724     -48.447
  C      510.902    -170.787     -49.132
  O      509.993    -173.238     -54.554
  O      511.067    -175.320     -53.511
  H      515.520    -169.103     -50.108
  H      509.976    -173.869     -55.298
  H      509.863    -167.483     -47.815
  H      509.116    -171.581     -48.284
  H      511.222    -171.736     -49.554
  H      513.108    -168.804     -50.615
  H      514.383    -170.231     -48.575
  H      513.185    -172.245     -49.086
  H      514.020    -171.953     -52.001
  H      512.816    -174.031     -51.358
  H      511.509    -173.088     -50.660
  P      514.966    -174.265     -49.435
  C      515.913    -175.037     -51.690
  O      514.789    -175.038     -50.830
  O      513.982    -174.616     -48.373
  O      516.465    -174.651     -49.016
  H      516.576    -174.605     -48.038
  H      515.719    -175.722     -52.521
  H      516.804    -175.373     -51.154
  H      516.074    -174.033     -52.090
  H      507.514    -173.035     -51.699
  H      507.854    -173.036     -53.413
  H      508.720    -171.951     -52.351

 3  4  5  6  7  8  9  10  11  12  13  23  28  29  30  31  32 0
 6-311+G(2d,p)
 ****
 33  34 0
 6-311+G(2d,p)
 ****
 1  2  14  15  16  17  18  19  20  21  22  24  25  26  27 0
 3-21G
 ****
 35  36  37  38  39  40  41  42  43  44  45 0
 3-21G
 ****


