%nproc=1
%NoSave
%Mem=1900MB
#P OB98/GEN NMR

erre ene a

0 1
  C     -524.205     105.802    -397.026
  O     -525.418     105.322    -396.451
  P     -525.394     104.709    -394.973
  C     -525.860     102.216    -395.419
  O     -526.374     103.444    -394.916
  C     -526.953     101.425    -396.148
  O     -528.000     101.022    -395.221
  C     -527.631     102.245    -397.259
  O     -528.023     101.391    -398.346
  C     -528.894     102.747    -396.587
  O     -529.886     103.119    -397.542
  C     -529.253     101.543    -395.717
  N     -534.115     102.334    -394.323
  C     -533.570     101.929    -395.490
  N     -532.270     101.718    -395.781
  C     -531.500     101.957    -394.705
  C     -531.910     102.364    -393.447
  C     -533.290     102.566    -393.272
  N     -533.840     102.999    -392.084
  N     -530.828     102.512    -392.593
  C     -529.776     102.240    -393.349
  N     -530.137     101.867    -394.615
  O     -525.574     105.696    -393.863
  O     -523.944     104.025    -394.898
  H     -530.699     103.332    -397.056
  H     -523.544     104.208    -394.023
  H     -534.274     101.758    -396.299
  H     -528.753     102.311    -393.026
  H     -529.729     100.746    -396.302
  H     -528.661     103.624    -395.974
  H     -527.019     103.063    -397.656
  H     -526.519     100.508    -396.560
  H     -525.456     101.621    -394.595
  H     -534.826     103.233    -392.089
  H     -533.226     103.320    -391.349
  H     -525.013     102.434    -396.081
  P     -527.354     101.715    -399.777
  C     -529.642     102.142    -400.971
  O     -528.474     101.362    -400.870
  O     -526.018     101.071    -399.968
  O     -527.303     103.316    -399.762
  H     -528.138     103.745    -399.531
  H     -530.205     101.818    -401.847
  H     -529.396     103.199    -401.083
  H     -530.265     101.996    -400.082
  H     -524.400     106.175    -398.010
  H     -523.496     105.003    -397.081
  H     -523.809     106.589    -396.418

 3  4  5  6  7  8  9  10  11  12  22  25  29  30  31  32 0
 6-311+G(2d,p)
 ****
 33  36  37 0
 6-311+G(2d,p)
 ****
 1  2  13  14  15  16  17  18  19  20  21  23  24  26 0
 3-21G
 ****
 27  28  34  35  38  39  40  41  42  43  44  45  46  47  48 0
 3-21G
 ****


