%nproc=1
%NoSave
%Mem=1900MB
#P OB98/GEN NMR

erre ene a

0 1
  C       21.734     -20.620     -11.279
  O       22.105     -19.483     -12.068
  P       21.356     -19.086     -13.429
  C       18.909     -18.760     -14.178
  O       19.840     -18.685     -13.102
  C       17.541     -18.196     -13.783
  O       17.005     -18.910     -12.653
  C       17.550     -16.730     -13.369
  O       17.656     -15.880     -14.496
  C       16.227     -16.631     -12.614
  O       15.127     -16.452     -13.521
  C       16.150     -18.008     -11.925
  N       16.513     -17.947     -10.515
  C       15.461     -17.991      -9.596
  O       14.293     -18.019      -9.985
  N       15.760     -17.977      -8.255
  C       16.992     -17.853      -7.870
  N       17.227     -17.852      -6.530
  C       18.121     -17.712      -8.807
  C       17.812     -17.770     -10.100
  O       21.495     -20.101     -14.518
  O       22.018     -17.697     -13.877
  H       15.257     -15.582     -13.946
  H       22.005     -17.637     -14.851
  H       19.130     -17.583      -8.445
  H       18.583     -17.684     -10.857
  H       15.136     -18.420     -12.007
  H       16.206     -15.792     -11.913
  H       18.378     -16.547     -12.674
  H       16.859     -18.349     -14.630
  H       16.431     -17.957      -5.915
  H       18.797     -19.813     -14.461
  H       18.147     -17.763      -6.126
  H       19.314     -18.209     -15.033
  P       18.596     -14.587     -14.431
  C       21.131     -14.261     -14.670
  O       19.990     -14.966     -15.122
  O       18.706     -13.934     -13.093
  O       17.938     -13.587     -15.499
  H       18.085     -12.670     -15.205
  H       22.021     -14.854     -14.893
  H       21.083     -14.082     -13.592
  H       21.198     -13.305     -15.196
  H       22.372     -20.683     -10.422
  H       21.836     -21.509     -11.865
  H       20.718     -20.517     -10.961

 3  4  5  6  7  8  9  10  11  12  13  23  27  28  29  30  32 0
 6-311+G(2d,p)
 ****
 34  35 0
 6-311+G(2d,p)
 ****
 1  2  14  15  16  17  18  19  20  21  22  24  25  26 0
 3-21G
 ****
 31  33  36  37  38  39  40  41  42  43  44  45  46 0
 3-21G
 ****


