%nproc=1
%NoSave
%Mem=1900MB
#P OB98/GEN NMR

erre ene a

0 1
  C      105.483     -40.954     -83.352
  O      105.947     -41.399     -82.074
  P      105.250     -40.770     -80.774
  C      107.484     -40.554     -79.454
  O      106.166     -41.089     -79.500
  C      108.461     -41.605     -78.924
  O      108.999     -42.404     -79.994
  C      109.670     -41.001     -78.231
  O      109.335     -40.572     -76.926
  C      110.664     -42.155     -78.264
  O      110.548     -42.990     -77.099
  C      110.256     -42.931     -79.537
  N      111.266     -42.868     -80.580
  C      111.941     -44.062     -80.851
  O      111.684     -45.081     -80.206
  N      112.907     -44.064     -81.826
  C      113.189     -42.965     -82.454
  N      114.159     -43.027     -83.405
  C      112.519     -41.678     -82.178
  C      111.578     -41.701     -81.237
  O      103.971     -41.708     -80.555
  O      104.861     -39.336     -80.931
  H      109.707     -43.479     -77.209
  H      103.235     -41.192     -80.180
  H      112.795     -40.787     -82.722
  H      111.034     -40.801     -80.968
  H      110.084     -43.988     -79.300
  H      111.696     -41.794     -78.289
  H      110.059     -40.161     -78.821
  H      107.921     -42.262     -78.229
  H      114.599     -43.925     -83.566
  H      107.508     -39.668     -78.818
  H      114.463     -42.233     -83.948
  H      107.766     -40.227     -80.460
  P      110.210     -39.399     -76.278
  C      110.772     -40.699     -74.137
  O      110.072     -39.604     -74.693
  O      109.283     -38.114     -76.525
  O      111.590     -39.202     -76.806
  H      109.753     -37.305     -76.256
  H      110.767     -40.602     -73.049
  H      111.808     -40.711     -74.484
  H      110.275     -41.634     -74.409
  H      106.032     -41.452     -84.124
  H      105.629     -39.897     -83.436
  H      104.442     -41.180     -83.452

 3  4  5  6  7  8  9  10  11  12  13  21  23  27  28  29  30  32 0
 6-311+G(2d,p)
 ****
 34  35 0
 6-311+G(2d,p)
 ****
 1  2  14  15  16  17  18  19  20  22  24  25  26 0
 3-21G
 ****
 31  33  36  37  38  39  40  41  42  43  44  45  46 0
 3-21G
 ****


