%nproc=1
%NoSave
%Mem=1900MB
#P OB98/GEN NMR

erre ene a

0 1
  C      184.382      31.495      82.978
  O      183.309      32.239      83.565
  P      183.597      32.973      84.963
  C      183.402      32.221      87.468
  O      183.295      31.875      86.093
  C      182.926      31.061      88.340
  O      181.482      30.952      88.300
  C      183.444      29.699      87.901
  O      184.810      29.529      88.244
  C      182.480      28.773      88.633
  O      182.877      28.620      90.006
  C      181.156      29.564      88.554
  N      180.236      29.041      87.550
  C      179.470      27.947      87.944
  O      179.563      27.424      89.055
  N      178.599      27.459      87.007
  C      178.449      27.929      85.732
  O      177.645      27.455      84.938
  C      179.323      29.052      85.358
  C      180.163      29.549      86.269
  O      182.360      33.980      85.046
  O      184.942      33.613      85.019
  H      181.542      33.612      84.665
  H      182.177      28.091      90.439
  H      178.027      26.676      87.276
  H      179.247      29.433      84.347
  H      180.817      30.379      86.013
  H      180.646      29.544      89.525
  H      182.442      27.770      88.191
  H      183.318      29.583      86.818
  H      183.228      31.265      89.375
  H      182.791      33.103      87.679
  H      184.444      32.479      87.687
  P      185.799      29.043      87.071
  C      185.698      27.139      85.281
  O      185.046      27.847      86.313
  O      186.946      28.308      87.917
  O      186.288      30.154      86.201
  H      186.592      27.738      88.621
  H      185.189      26.181      85.141
  H      186.744      26.947      85.522
  H      185.635      27.711      84.351
  H      184.053      31.062      82.056
  H      184.686      30.719      83.648
  H      185.208      32.148      82.790

 3  4  5  6  7  8  9  10  11  12  13  24  28  29  30  31  32 0
 6-311+G(2d,p)
 ****
 33  34 0
 6-311+G(2d,p)
 ****
 1  2  14  15  16  17  18  19  20  21  22  23  25  26  27 0
 3-21G
 ****
 35  36  37  38  39  40  41  42  43  44  45 0
 3-21G
 ****


