%nproc=1
%NoSave
%Mem=1900MB
#P OB98/GEN NMR

erre ene a

0 1
  C     -264.012    -722.857      24.548
  O     -262.658    -723.221      24.728
  H     -264.348    -723.235      23.585
  H     -264.111    -721.771      24.548
  H     -264.636    -723.292      25.331
  P     -261.919    -722.778      26.082
  C     -261.128    -725.142      26.792
  O     -262.025    -724.067      27.030
  C     -261.602    -726.400      27.505
  O     -262.821    -726.907      26.925
  C     -260.641    -727.584      27.444
  O     -259.496    -727.431      28.279
  C     -261.547    -728.697      27.906
  O     -261.734    -728.612      29.328
  C     -262.856    -728.341      27.148
  N     -262.975    -729.062      25.877
  C     -263.491    -730.372      25.950
  O     -263.785    -730.863      27.031
  N     -263.611    -731.094      24.785
  C     -263.217    -730.575      23.644
  N     -263.362    -731.330      22.529
  C     -262.662    -729.205      23.541
  C     -262.572    -728.522      24.680
  O     -262.381    -721.491      26.693
  O     -260.361    -722.780      25.706
  H     -260.859    -728.710      29.739
  H     -259.852    -722.500      26.512
  H     -262.335    -728.829      22.581
  H     -262.170    -727.514      24.671
  H     -263.738    -728.555      27.768
  H     -261.163    -729.692      27.683
  H     -260.332    -727.778      26.402
  H     -261.825    -726.119      28.539
  H     -263.737    -732.275      22.648
  H     -260.132    -724.840      27.151
  H     -263.013    -731.043      21.623
  H     -261.061    -725.345      25.717
  P     -258.049    -727.455      27.560
  C     -257.301    -725.391      28.970
  O     -257.465    -725.962      27.684
  O     -258.413    -727.590      26.015
  O     -257.123    -728.522      28.036
  H     -258.338    -728.534      25.728
  H     -256.905    -724.402      28.873
  H     -256.625    -725.991      29.543
  H     -258.249    -725.349      29.465

 6  7  8  9  10  11  12  13  14  15  16  26  30  31  32  33  35 0
 6-311+G(2d,p)
 ****
 37  38 0
 6-311+G(2d,p)
 ****
 1  2  3  4  5  17  18  19  20  21  22  23  24  25 0
 3-21G
 ****
 27  28  29  34  36  39  40  41  42  43  44  45  46 0
 3-21G
 ****


