%nproc=1
%NoSave
%Mem=1900MB
#P OB98/GEN NMR

erre ene a

0 1
  C      415.043     -79.097    -548.870
  O      415.862     -78.054    -548.379
  H      415.685     -79.879    -549.283
  H      414.379     -78.736    -549.657
  H      414.455     -79.526    -548.053
  P      415.157     -76.676    -547.952
  C      415.723     -74.667    -549.476
  O      414.950     -75.858    -549.322
  C      417.129     -74.988    -549.980
  O      417.062     -75.891    -551.106
  C      417.886     -73.772    -550.495
  O      418.260     -72.856    -549.491
  C      418.959     -74.404    -551.374
  O      420.128     -74.793    -550.656
  C      418.234     -75.664    -551.910
  N      417.903     -75.543    -553.328
  C      418.908     -75.903    -554.217
  O      420.023     -76.286    -553.864
  N      418.603     -75.773    -555.544
  C      417.440     -75.282    -556.054
  O      417.245     -75.153    -557.252
  C      416.422     -74.891    -555.061
  C      416.695     -75.036    -553.765
  O      415.848     -75.891    -546.878
  O      413.668     -77.117    -547.570
  H      420.514     -73.981    -550.280
  H      413.211     -76.413    -547.045
  H      419.318     -76.040    -556.203
  H      415.486     -74.491    -555.431
  H      415.961     -74.753    -553.012
  H      418.874     -76.549    -551.791
  H      419.281     -73.723    -552.166
  H      417.221     -73.223    -551.176
  H      417.682     -75.488    -549.176
  H      415.792     -74.192    -548.491
  H      415.213     -73.984    -550.165
  P      418.541     -71.309    -549.777
  C      421.029     -70.829    -549.202
  O      420.075     -71.148    -550.214
  O      417.965     -70.331    -548.798
  O      417.762     -71.101    -551.179
  H      417.404     -70.196    -551.178
  H      422.002     -70.754    -549.640
  H      421.031     -71.598    -548.458
  H      420.769     -69.895    -548.749

 6  7  8  9  10  11  12  13  14  15  16  26  31  32  33  34  35 0
 6-311+G(2d,p)
 ****
 36  37 0
 6-311+G(2d,p)
 ****
 1  2  3  4  5  17  18  19  20  21  22  23  24  25 0
 3-21G
 ****
 27  28  29  30  38  39  40  41  42  43  44  45 0
 3-21G
 ****


