%nproc=1
%NoSave
%Mem=1900MB
#P OB98/GEN NMR

erre ene a

0 1
  C       52.975     150.778    -107.254
  O       52.625     149.536    -107.834
  H       52.280     150.991    -106.436
  H       52.901     151.582    -107.991
  H       53.989     150.736    -106.848
  P       53.447     149.032    -109.112
  C       55.795     147.999    -109.456
  O       54.947     148.772    -108.611
  C       57.250     148.115    -109.007
  O       57.736     149.454    -109.222
  C       57.470     147.826    -107.525
  O       57.398     146.438    -107.272
  C       58.835     148.460    -107.319
  O       59.880     147.606    -107.813
  C       58.713     149.734    -108.190
  N       58.342     150.925    -107.433
  C       59.298     151.402    -106.529
  O       60.373     150.817    -106.396
  N       58.997     152.520    -105.789
  C       57.869     153.133    -105.964
  N       57.636     154.236    -105.205
  C       56.851     152.682    -106.932
  C       57.143     151.579    -107.617
  O       53.344     149.883    -110.341
  O       52.891     147.553    -109.370
  H       59.753     147.554    -108.782
  H       52.168     147.569    -110.024
  H       55.926     153.231    -107.053
  H       56.447     151.180    -108.350
  H       59.662     149.939    -108.703
  H       59.049     148.650    -106.267
  H       56.741     148.375    -106.921
  H       57.852     147.441    -109.631
  H       58.375     154.518    -104.569
  H       55.683     148.393    -110.472
  H       56.873     154.878    -105.369
  H       55.484     146.948    -109.458
  P       57.059     145.867    -105.812
  C       54.955     145.862    -104.335
  O       55.617     146.467    -105.434
  O       58.119     146.081    -104.786
  O       56.732     144.323    -106.079
  H       57.568     143.811    -106.213
  H       54.011     146.342    -104.179
  H       55.557     145.964    -103.456
  H       54.798     144.824    -104.541

 6  7  8  9  10  11  12  13  14  15  16  26  30  31  32  33  35 0
 6-311+G(2d,p)
 ****
 37  38 0
 6-311+G(2d,p)
 ****
 1  2  3  4  5  17  18  19  20  21  22  23  24  25 0
 3-21G
 ****
 27  28  29  34  36  39  40  41  42  43  44  45  46 0
 3-21G
 ****


