%nproc=1
%NoSave
%Mem=1900MB
#P OB98/GEN NMR

erre ene a

0 1
  C     -540.806    -766.647    1046.391
  O     -541.249    -766.422    1047.722
  H     -539.921    -766.030    1046.213
  H     -541.585    -766.357    1045.677
  H     -540.543    -767.695    1046.261
  P     -542.575    -767.214    1048.168
  C     -541.055    -768.960    1049.325
  O     -542.128    -768.035    1049.472
  C     -540.175    -768.964    1050.569
  O     -539.229    -767.884    1050.518
  C     -540.949    -768.802    1051.877
  O     -541.470    -770.040    1052.317
  C     -539.837    -768.310    1052.812
  O     -539.064    -769.437    1053.269
  C     -538.980    -767.424    1051.874
  N     -537.013    -762.804    1052.929
  C     -536.537    -764.031    1053.122
  N     -537.144    -765.234    1052.868
  C     -538.353    -765.043    1052.349
  C     -538.987    -763.831    1052.094
  C     -538.255    -762.660    1052.392
  N     -538.774    -761.389    1052.185
  N     -540.239    -764.028    1051.556
  C     -540.344    -765.334    1051.440
  N     -539.251    -766.001    1051.931
  O     -543.273    -767.978    1047.101
  O     -543.438    -766.012    1048.801
  H     -539.696    -770.055    1053.691
  H     -542.865    -765.420    1049.316
  H     -535.534    -764.088    1053.537
  H     -541.190    -765.850    1050.972
  H     -537.911    -767.549    1052.066
  H     -540.222    -767.803    1053.696
  H     -541.711    -768.024    1051.797
  H     -539.598    -769.905    1050.570
  H     -540.451    -768.706    1048.448
  H     -538.258    -760.641    1052.603
  H     -539.724    -761.305    1051.918
  H     -541.492    -769.951    1049.157
  P     -542.843    -770.127    1053.144
  C     -543.634    -771.412    1051.051
  O     -543.644    -771.345    1052.469
  O     -543.582    -768.834    1053.246
  O     -542.410    -770.708    1054.558
  H     -543.121    -770.559    1055.211
  H     -544.199    -772.262    1050.730
  H     -542.625    -771.503    1050.705
  H     -544.070    -770.522    1050.649

 6  7  8  9  10  11  12  13  14  15  25  28  32  33  34  35 0
 6-311+G(2d,p)
 ****
 36  39  40 0
 6-311+G(2d,p)
 ****
 1  2  3  4  5  16  17  18  19  20  21  22  23  24 0
 3-21G
 ****
 26  27  29  30  31  37  38  41  42  43  44  45  46  47 0
 3-21G
 ****
 48 0
 3-21G
 ****


