%nproc=1
%NoSave
%Mem=1900MB
#P OB98/GEN NMR

erre ene a

0 1
  C       23.636     122.402      36.826
  O       24.631     122.428      37.837
  P       25.398     123.788      38.208
  C       26.794     125.475      36.858
  O       26.220     124.173      36.885
  C       28.278     125.387      36.514
  O       28.983     124.863      37.664
  C       28.641     124.451      35.361
  O       28.521     125.031      34.070
  C       30.113     124.193      35.660
  O       30.903     125.315      35.223
  C       30.122     124.103      37.188
  N       32.772     120.017      38.761
  C       33.160     121.255      38.379
  N       32.393     122.283      37.955
  C       31.094     121.947      37.988
  C       30.546     120.730      38.357
  C       31.449     119.731      38.759
  N       31.050     118.477      39.169
  N       29.170     120.758      38.242
  C       28.896     121.976      37.825
  N       30.023     122.735      37.665
  O       26.188     123.728      39.468
  O       24.245     124.894      38.248
  H       31.806     125.176      35.566
  H       24.562     125.689      38.717
  H       34.229     121.446      38.414
  H       27.902     122.350      37.623
  H       31.019     124.549      37.631
  H       30.503     123.311      35.146
  H       28.090     123.506      35.425
  H       28.649     126.402      36.324
  H       26.681     125.920      37.853
  H       31.753     117.872      39.562
  H       30.064     118.319      39.323
  H       26.257     126.098      36.139
  P       27.887     124.113      32.911
  C       28.866     122.224      31.387
  O       29.101     123.229      32.348
  O       27.106     124.859      31.886
  O       27.013     123.055      33.737
  H       27.522     122.434      34.284
  H       29.829     121.857      31.020
  H       28.300     122.618      30.540
  H       28.323     121.390      31.840
  H       23.249     121.409      36.732
  H       24.066     122.707      35.895
  H       22.843     123.071      37.089

 3  4  5  6  7  8  9  10  11  12  22  25  29  30  31  32 0
 6-311+G(2d,p)
 ****
 33  36  37 0
 6-311+G(2d,p)
 ****
 1  2  13  14  15  16  17  18  19  20  21  23  24  26 0
 3-21G
 ****
 27  28  34  35  38  39  40  41  42  43  44  45  46  47  48 0
 3-21G
 ****


