%nproc=1
%NoSave
%Mem=1900MB
#P OB98/GEN NMR

erre ene a

0 1
  C       80.968     -17.226      28.894
  O       81.789     -17.994      28.008
  P       81.349     -19.450      27.495
  C       83.020     -20.615      29.058
  O       82.537     -20.510      27.723
  C       84.253     -21.521      29.184
  O       84.012     -22.817      28.572
  C       85.533     -20.965      28.546
  O       86.616     -21.466      29.331
  C       85.517     -21.622      27.176
  O       86.783     -21.623      26.533
  C       84.997     -23.009      27.540
  N       85.960     -25.096      22.965
  C       86.782     -24.652      23.939
  N       86.453     -24.145      25.143
  C       85.122     -24.157      25.321
  C       84.160     -24.588      24.422
  C       84.625     -25.066      23.185
  N       83.792     -25.477      22.170
  N       82.891     -24.419      24.943
  C       83.089     -23.884      26.131
  N       84.420     -23.709      26.408
  O       80.780     -19.467      26.112
  O       80.235     -19.917      28.547
  H       87.291     -22.387      26.861
  H       79.476     -20.293      28.063
  H       87.845     -24.704      23.719
  H       82.309     -23.584      26.820
  H       85.795     -23.638      27.953
  H       84.816     -21.084      26.527
  H       85.556     -19.874      28.495
  H       84.415     -21.708      30.253
  H       82.215     -21.010      29.688
  H       84.215     -25.715      21.287
  H       82.796     -25.342      22.267
  H       83.265     -19.611      29.422
  P       87.665     -20.488      30.042
  C       89.879     -21.264      29.025
  O       89.040     -21.297      30.165
  O       87.186     -19.872      31.315
  O       87.989     -19.373      28.937
  H       88.370     -18.587      29.371
  H       89.484     -21.938      28.259
  H       90.880     -21.596      29.310
  H       89.946     -20.251      28.618
  H       81.448     -16.294      29.107
  H       80.822     -17.768      29.805
  H       80.020     -17.042      28.433

 3  4  5  6  7  8  9  10  11  12  22  25  29  30  31  32 0
 6-311+G(2d,p)
 ****
 33  36  37 0
 6-311+G(2d,p)
 ****
 1  2  13  14  15  16  17  18  19  20  21  23  24  26 0
 3-21G
 ****
 27  28  34  35  38  39  40  41  42  43  44  45  46  47  48 0
 3-21G
 ****


