%nproc=1
%NoSave
%Mem=1900MB
#P OB98/GEN NMR

erre ene a

0 1
  C      236.903     399.902      73.231
  O      236.915     399.849      71.820
  H      237.663     400.616      73.561
  H      237.138     398.920      73.650
  H      235.926     400.236      73.588
  P      235.909     398.809      71.127
  C      237.586     397.230      69.925
  O      236.637     398.280      69.799
  C      238.184     396.910      68.558
  O      237.170     396.348      67.697
  C      238.715     398.130      67.814
  O      239.983     398.540      68.291
  C      238.764     397.596      66.392
  O      239.973     396.862      66.146
  C      237.531     396.669      66.339
  N      236.420     397.272      65.603
  C      236.578     397.336      64.225
  O      237.578     396.923      63.638
  N      235.558     397.935      63.534
  C      234.440     398.494      64.080
  O      233.596     399.079      63.413
  C      234.321     398.381      65.545
  C      235.306     397.796      66.230
  O      234.741     399.752      70.570
  O      235.389     397.737      72.025
  H      233.963     399.697      71.154
  H      240.697     397.519      66.152
  H      235.660     397.998      62.530
  H      233.444     398.810      66.011
  H      235.253     397.717      67.312
  H      237.786     395.723      65.848
  H      238.732     398.405      65.659
  H      237.988     398.947      67.861
  H      238.979     396.163      68.691
  H      237.090     396.336      70.316
  H      238.365     397.537      70.628
  P      240.128     400.005      68.922
  C      242.165     401.042      67.623
  O      241.676     400.408      68.794
  O      239.935     399.693      70.478
  O      239.172     401.000      68.355
  H      240.318     398.840      70.746
  H      243.213     401.228      67.730
  H      241.651     401.969      67.478
  H      242.000     400.407      66.778

 6  7  8  9  10  11  12  13  14  15  16  27  31  32  33  34  35 0
 6-311+G(2d,p)
 ****
 36  37 0
 6-311+G(2d,p)
 ****
 1  2  3  4  5  17  18  19  20  21  22  23  24  25 0
 3-21G
 ****
 26  28  29  30  38  39  40  41  42  43  44  45 0
 3-21G
 ****


