%nproc=1
%NoSave
%Mem=1900MB
#P OB98/GEN NMR

erre ene a

0 1
  C      -29.417    -110.860     314.472
  O      -30.246    -111.598     313.601
  H      -29.670    -109.799     314.381
  H      -28.368    -110.993     314.188
  H      -29.565    -111.171     315.507
  P      -30.177    -113.200     313.727
  C      -29.244    -114.357     311.599
  O      -28.948    -113.677     312.809
  C      -29.648    -113.361     310.514
  O      -28.624    -112.345     310.356
  C      -29.854    -113.980     309.134
  O      -31.146    -114.562     309.001
  C      -29.709    -112.751     308.252
  O      -30.917    -111.967     308.305
  C      -28.559    -112.003     308.942
  N      -24.905    -110.697     305.671
  C      -26.141    -110.115     305.905
  N      -26.450    -109.039     305.148
  N      -26.994    -110.554     306.790
  C      -26.560    -111.644     307.463
  C      -25.360    -112.308     307.321
  C      -24.418    -111.809     306.346
  O      -23.302    -112.274     306.118
  N      -25.269    -113.369     308.190
  C      -26.419    -113.363     308.837
  N      -27.240    -112.335     308.428
  O      -31.465    -113.690     312.906
  O      -30.188    -113.734     315.120
  H      -31.645    -112.550     308.030
  H      -31.833    -114.483     313.345
  H      -24.289    -110.325     304.969
  H      -26.702    -114.065     309.610
  H      -28.667    -110.911     308.865
  H      -29.535    -112.998     307.205
  H      -25.855    -108.677     304.416
  H      -29.057    -114.699     308.893
  H      -27.333    -108.577     305.324
  H      -30.563    -112.851     310.849
  H      -30.068    -115.063     311.771
  H      -28.355    -114.921     311.279
  P      -31.327    -115.733     307.917
  C      -33.076    -115.032     306.126
  O      -31.716    -114.990     306.544
  O      -32.697    -116.429     308.364
  O      -30.196    -116.702     307.838
  H      -32.725    -117.346     308.029
  H      -33.182    -114.500     305.204
  H      -33.693    -114.578     306.873
  H      -33.375    -116.050     305.987

 6  7  8  9  10  11  12  13  14  15  26  29  33  34 0
 6-311+G(2d,p)
 ****
 36  38  39  40  41 0
 6-311+G(2d,p)
 ****
 1  2  3  4  5  16  17  18  19  20  21  22  23  24  25 0
 3-21G
 ****
 27  28  30  31  32  35  37  42  43  44  45  46  47 0
 3-21G
 ****
 48  49 0
 3-21G
 ****


