%nproc=1
%NoSave
%Mem=1900MB
#P OB98/GEN NMR

erre ene a

0 1
  C      -53.463     150.445     249.169
  O      -53.716     151.306     250.261
  P      -52.593     151.456     251.397
  C      -54.122     150.166     253.103
  O      -53.345     151.317     252.808
  C      -55.533     150.578     253.541
  O      -55.452     151.217     254.847
  C      -56.236     151.550     252.590
  O      -57.632     151.227     252.604
  C      -56.000     152.900     253.254
  O      -56.943     153.884     252.849
  C      -56.088     152.508     254.731
  N      -55.452     153.476     255.630
  C      -55.906     154.793     255.597
  O      -56.789     155.194     254.838
  N      -55.277     155.660     256.456
  C      -54.222     155.362     257.272
  O      -53.685     156.180     258.007
  C      -53.764     153.963     257.227
  C      -54.388     153.100     256.435
  O      -52.254     153.017     251.291
  O      -51.427     150.543     251.215
  H      -53.029     153.566     251.083
  H      -56.845     154.659     253.438
  H      -55.609     156.610     256.476
  H      -52.912     153.693     257.855
  H      -54.063     152.069     256.378
  H      -57.138     152.374     255.024
  H      -54.996     153.262     252.998
  H      -55.848     151.498     251.566
  H      -56.130     149.663     253.663
  H      -53.642     149.607     253.915
  H      -54.155     149.518     252.221
  P      -58.251     150.500     251.298
  C      -59.914     152.515     251.060
  O      -59.715     151.111     251.068
  O      -58.568     149.053     251.909
  O      -57.345     150.450     250.112
  H      -59.037     149.084     252.754
  H      -60.868     152.726     250.565
  H      -59.121     153.030     250.520
  H      -59.966     152.881     252.087
  H      -54.302     150.455     248.505
  H      -53.305     149.450     249.529
  H      -52.591     150.778     248.647

 3  4  5  6  7  8  9  10  11  12  13  24  28  29  30  31  32 0
 6-311+G(2d,p)
 ****
 33  34 0
 6-311+G(2d,p)
 ****
 1  2  14  15  16  17  18  19  20  21  22  23  25  26  27 0
 3-21G
 ****
 35  36  37  38  39  40  41  42  43  44  45 0
 3-21G
 ****


