%nproc=1
%NoSave
%Mem=1900MB
#P OB98/GEN NMR

erre ene a

0 1
  C     -955.542    -910.679    -512.337
  O     -955.070    -910.426    -513.641
  P     -954.080    -909.190    -513.927
  C     -954.189    -906.631    -514.005
  O     -954.926    -907.837    -513.808
  C     -955.087    -905.571    -514.654
  O     -956.335    -905.430    -513.919
  C     -954.480    -904.180    -514.687
  O     -953.455    -904.074    -515.656
  C     -955.697    -903.339    -514.986
  O     -956.023    -903.354    -516.382
  C     -956.780    -904.072    -514.188
  N     -957.133    -903.402    -512.932
  C     -958.251    -902.551    -512.971
  O     -958.847    -902.366    -514.036
  N     -958.666    -901.953    -511.805
  C     -957.958    -902.062    -510.728
  N     -958.442    -901.511    -509.598
  C     -956.683    -902.829    -510.701
  C     -956.344    -903.454    -511.813
  O     -953.252    -909.308    -515.150
  O     -953.161    -909.147    -512.614
  H     -952.207    -909.092    -512.902
  H     -956.312    -904.262    -516.594
  H     -956.088    -902.831    -509.788
  H     -955.426    -904.059    -511.863
  H     -957.708    -904.187    -514.783
  H     -955.560    -902.295    -514.705
  H     -954.089    -903.927    -513.698
  H     -955.331    -905.894    -515.692
  H     -959.326    -901.023    -509.667
  H     -953.354    -906.853    -514.663
  H     -958.152    -901.797    -508.680
  H     -953.823    -906.275    -513.040
  P     -952.635    -902.690    -515.682
  C     -953.255    -900.172    -515.885
  O     -953.717    -901.512    -515.853
  O     -951.903    -902.708    -517.111
  O     -951.652    -902.509    -514.576
  H     -951.030    -902.302    -517.057
  H     -954.046    -899.540    -516.318
  H     -952.353    -900.086    -516.487
  H     -953.066    -899.815    -514.847
  H     -956.183    -911.536    -512.350
  H     -956.089    -909.830    -511.985
  H     -954.712    -910.864    -511.687

 3  4  5  6  7  8  9  10  11  12  13  24  27  28  29  30  32 0
 6-311+G(2d,p)
 ****
 34  35 0
 6-311+G(2d,p)
 ****
 1  2  14  15  16  17  18  19  20  21  22  23  25  26 0
 3-21G
 ****
 31  33  36  37  38  39  40  41  42  43  44  45  46 0
 3-21G
 ****


