%nproc=1
%NoSave
%Mem=1900MB
#P OB98/GEN NMR

erre ene a

0 1
  C      721.394    -865.983    -273.865
  O      720.958    -865.863    -272.493
  P      721.997    -866.224    -271.316
  C      722.040    -865.898    -268.741
  O      721.258    -866.118    -269.909
  C      721.138    -865.580    -267.536
  O      720.541    -864.275    -267.626
  C      719.971    -866.553    -267.381
  O      720.371    -867.734    -266.719
  C      719.040    -865.757    -266.500
  O      719.466    -865.839    -265.109
  C      719.227    -864.327    -267.017
  N      715.424    -861.046    -268.001
  C      716.201    -861.212    -266.910
  N      717.187    -862.135    -266.725
  C      717.345    -862.887    -267.807
  C      716.602    -862.844    -268.987
  C      715.604    -861.860    -269.073
  N      714.802    -861.687    -270.179
  N      717.042    -863.795    -269.883
  C      718.014    -864.422    -269.252
  N      718.227    -863.919    -268.004
  O      722.999    -864.958    -271.322
  O      722.755    -867.480    -271.551
  H      719.663    -866.792    -264.950
  H      723.889    -865.247    -271.101
  H      716.019    -860.542    -266.080
  H      718.606    -865.232    -269.669
  H      719.217    -863.567    -266.227
  H      717.994    -866.120    -266.508
  H      719.488    -866.765    -268.352
  H      721.753    -865.613    -266.623
  H      722.725    -865.060    -268.898
  H      714.126    -860.936    -270.181
  H      714.958    -862.274    -270.990
  H      722.657    -866.794    -268.543
  P      720.617    -869.047    -267.640
  C      721.215    -871.460    -266.860
  O      720.384    -870.312    -266.694
  O      722.185    -869.018    -267.895
  O      719.823    -869.048    -268.920
  H      722.386    -869.411    -268.783
  H      721.136    -872.070    -265.957
  H      722.255    -871.157    -267.037
  H      720.863    -872.025    -267.708
  H      720.593    -865.709    -274.519
  H      721.684    -866.994    -274.060
  H      722.229    -865.335    -274.032

 3  4  5  6  7  8  9  10  11  12  22  25  29  30  31  32 0
 6-311+G(2d,p)
 ****
 33  36  37 0
 6-311+G(2d,p)
 ****
 1  2  13  14  15  16  17  18  19  20  21  23  24  26 0
 3-21G
 ****
 27  28  34  35  38  39  40  41  42  43  44  45  46  47  48 0
 3-21G
 ****


