%nproc=1
%NoSave
%Mem=1900MB
#P OB98/GEN NMR

erre ene a

0 1
  C        6.719      27.277      -2.315
  O        5.367      26.920      -2.523
  H        6.850      27.693      -1.312
  H        7.339      26.380      -2.406
  H        7.038      28.006      -3.065
  P        4.282      28.096      -2.396
  C        2.965      26.995      -0.440
  O        3.804      28.061      -0.863
  C        2.580      27.207       1.020
  O        3.758      27.152       1.857
  C        1.937      28.561       1.297
  O        0.554      28.580       0.988
  C        2.169      28.683       2.793
  O        1.228      27.857       3.501
  C        3.590      28.115       2.933
  N        7.267      30.612       5.473
  C        6.436      29.614       5.841
  N        5.499      28.989       5.099
  C        5.471      29.484       3.852
  C        6.262      30.496       3.331
  C        7.196      31.078       4.204
  N        8.024      32.117       3.842
  N        5.926      30.744       2.014
  C        4.964      29.884       1.744
  N        4.632      29.124       2.832
  O        3.009      27.526      -3.182
  O        4.715      29.440      -2.878
  H        1.344      26.946       3.171
  H        2.371      28.243      -3.360
  H        6.534      29.275       6.868
  H        4.472      29.782       0.785
  H        3.741      27.586       3.881
  H        2.038      29.705       3.159
  H        2.470      29.371       0.786
  H        1.918      26.386       1.325
  H        3.507      26.050      -0.545
  H        8.550      32.563       4.577
  H        7.876      32.567       2.951
  H        2.068      26.968      -1.066
  P        0.038      29.715      -0.027
  C       -0.664      31.316       1.895
  O        0.162      31.112       0.754
  O       -1.540      29.458      -0.076
  O        0.663      29.668      -1.382
  H       -1.902      29.687      -0.953
  H       -0.471      32.285       2.306
  H       -0.449      30.568       2.629
  H       -1.692      31.249       1.607

 6  7  8  9  10  11  12  13  14  15  25  28  32  33  34  35 0
 6-311+G(2d,p)
 ****
 36  39  40 0
 6-311+G(2d,p)
 ****
 1  2  3  4  5  16  17  18  19  20  21  22  23  24 0
 3-21G
 ****
 26  27  29  30  31  37  38  41  42  43  44  45  46  47 0
 3-21G
 ****
 48 0
 3-21G
 ****


