%nproc=1
%NoSave
%Mem=1900MB
#P OB98/GEN NMR

erre ene a

0 1
  C      113.719     484.056    -463.837
  O      113.254     485.117    -462.996
  P      112.154     486.148    -463.555
  C      110.009     484.769    -463.102
  O      110.882     485.324    -464.081
  C      108.711     485.586    -463.034
  O      108.015     485.578    -464.311
  C      107.707     485.016    -462.039
  O      108.040     485.131    -460.676
  C      106.403     485.651    -462.501
  O      106.253     486.974    -461.977
  C      106.604     485.694    -464.031
  N      105.836     484.651    -464.725
  C      104.585     485.018    -465.204
  O      104.100     486.135    -465.026
  N      103.887     484.044    -465.859
  C      104.292     482.752    -466.057
  O      103.613     481.915    -466.633
  C      105.612     482.414    -465.508
  C      106.312     483.360    -464.876
  O      112.668     487.200    -464.480
  O      111.591     486.821    -462.208
  H      105.384     487.307    -462.265
  H      111.467     487.773    -462.383
  H      102.976     484.297    -466.217
  H      105.963     481.400    -465.636
  H      107.297     483.129    -464.460
  H      106.279     486.663    -464.435
  H      105.536     485.070    -462.165
  H      107.618     483.936    -462.230
  H      108.962     486.623    -462.801
  H      110.501     484.761    -462.130
  H      109.806     483.724    -463.359
  P      108.269     483.861    -459.714
  C      110.775     483.318    -460.122
  O      109.430     482.957    -460.351
  O      107.054     483.155    -459.201
  O      109.037     484.537    -458.474
  H      108.778     484.058    -457.658
  H      111.427     482.611    -460.641
  H      111.009     483.299    -459.057
  H      110.970     484.321    -460.523
  H      114.442     483.472    -463.307
  H      114.168     484.469    -464.716
  H      112.894     483.434    -464.116

 3  4  5  6  7  8  9  10  11  12  13  23  28  29  30  31  32 0
 6-311+G(2d,p)
 ****
 33  34 0
 6-311+G(2d,p)
 ****
 1  2  14  15  16  17  18  19  20  21  22  24  25  26  27 0
 3-21G
 ****
 35  36  37  38  39  40  41  42  43  44  45 0
 3-21G
 ****


