%nproc=1
%NoSave
%Mem=1900MB
#P OB98/GEN NMR

erre ene a

0 1
  C      299.984     -37.620      65.312
  O      299.119     -38.168      64.338
  H      299.409     -37.197      66.141
  H      300.628     -38.413      65.697
  H      300.612     -36.843      64.862
  P      298.017     -37.176      63.725
  C      296.753     -39.191      62.691
  O      296.680     -38.046      63.533
  C      295.441     -39.964      62.744
  O      295.288     -40.604      64.031
  C      294.189     -39.109      62.569
  O      293.948     -38.790      61.205
  C      293.126     -40.052      63.118
  O      292.766     -41.020      62.108
  C      293.862     -40.751      64.270
  N      290.232     -40.126      67.853
  C      290.212     -40.738      66.643
  N      291.210     -40.854      65.741
  C      292.332     -40.275      66.196
  C      292.508     -39.620      67.403
  C      291.387     -39.550      68.251
  N      291.412     -38.915      69.478
  N      293.799     -39.163      67.537
  C      294.400     -39.536      66.422
  N      293.555     -40.207      65.579
  O      298.522     -36.937      62.223
  O      297.841     -35.885      64.455
  H      292.319     -40.529      61.396
  H      298.321     -36.017      61.963
  H      289.268     -41.197      66.362
  H      295.443     -39.349      66.190
  H      293.653     -41.826      64.290
  H      292.209     -39.539      63.420
  H      294.232     -38.209      63.190
  H      295.482     -40.752      61.980
  H      297.566     -39.839      63.027
  H      290.652     -39.065      70.119
  H      292.287     -38.488      69.776
  H      296.959     -38.862      61.667
  P      294.348     -37.313      60.710
  C      292.982     -37.586      58.521
  O      293.164     -36.854      59.726
  O      295.572     -37.583      59.713
  O      294.719     -36.357      61.793
  H      296.142     -36.790      59.658
  H      292.164     -37.170      57.971
  H      292.772     -38.609      58.753
  H      293.873     -37.530      57.932

 6  7  8  9  10  11  12  13  14  15  25  28  32  33  34  35 0
 6-311+G(2d,p)
 ****
 36  39  40 0
 6-311+G(2d,p)
 ****
 1  2  3  4  5  16  17  18  19  20  21  22  23  24 0
 3-21G
 ****
 26  27  29  30  31  37  38  41  42  43  44  45  46  47  48 0
 3-21G
 ****


