%nproc=1
%NoSave
%Mem=1900MB
#P OB98/GEN NMR

erre ene a

0 1
  C     -184.177     680.022     -44.333
  O     -183.515     680.020     -43.072
  P     -182.240     679.036     -42.896
  C     -181.926     676.479     -42.622
  O     -182.833     677.566     -42.742
  C     -182.231     675.671     -41.368
  O     -183.538     675.065     -41.431
  C     -181.268     674.504     -41.116
  O     -180.053     674.935     -40.511
  C     -182.081     673.655     -40.138
  O     -181.968     674.201     -38.811
  C     -183.502     673.826     -40.695
  N     -185.923     669.364     -40.834
  C     -185.860     670.320     -39.813
  N     -186.491     670.003     -38.667
  N     -185.252     671.478     -39.919
  C     -184.654     671.636     -41.137
  C     -184.661     670.792     -42.229
  C     -185.333     669.510     -42.078
  O     -185.364     668.620     -42.914
  N     -183.946     671.316     -43.281
  C     -183.543     672.500     -42.850
  N     -183.915     672.729     -41.541
  O     -181.710     679.384     -41.422
  O     -181.178     679.205     -43.936
  H     -182.756     673.895     -38.317
  H     -180.800     679.054     -41.320
  H     -186.396     668.506     -40.688
  H     -182.978     673.205     -43.427
  H     -184.244     673.924     -39.882
  H     -181.734     672.623     -40.099
  H     -186.926     669.108     -38.489
  H     -181.091     673.945     -42.038
  H     -186.418     670.646     -37.870
  H     -182.215     676.357     -40.504
  H     -180.914     676.861     -42.568
  H     -182.010     675.835     -43.510
  P     -178.736     674.103     -40.905
  C     -178.108     671.583     -40.828
  O     -179.056     672.579     -40.527
  O     -177.672     674.574     -39.794
  O     -178.231     674.353     -42.294
  H     -176.774     674.486     -40.115
  H     -178.353     670.669     -40.280
  H     -177.110     671.904     -40.534
  H     -178.108     671.359     -41.899
  H     -184.994     680.713     -44.306
  H     -184.547     679.040     -44.543
  H     -183.488     680.314     -45.097

 3  4  5  6  7  8  9  10  11  12  23  26  30  31 0
 6-311+G(2d,p)
 ****
 33  35  36  37  38 0
 6-311+G(2d,p)
 ****
 1  2  13  14  15  16  17  18  19  20  21  22  24  25 0
 3-21G
 ****
 27  28  29  32  34  39  40  41  42  43  44  45  46  47  48  49 0
 3-21G
 ****


