%nproc=1
%NoSave
%Mem=1900MB
#P OB98/GEN NMR

erre ene a

0 1
  C        5.027     369.804    -451.693
  O        4.255     368.956    -452.517
  H        6.044     369.403    -451.630
  H        4.604     369.845    -450.685
  H        5.070     370.808    -452.121
  P        2.697     369.307    -452.660
  C        1.289     367.686    -451.192
  O        2.000     368.916    -451.269
  C        2.223     366.591    -450.675
  O        2.881     367.040    -449.469
  C        1.512     365.299    -450.293
  O        1.189     364.498    -451.415
  C        2.552     364.653    -449.397
  O        3.528     363.925    -450.158
  C        3.186     365.864    -448.689
  N        2.728     365.984    -447.307
  C        3.211     365.020    -446.424
  O        3.978     364.121    -446.755
  N        2.750     365.109    -445.137
  C        1.839     366.010    -444.674
  O        1.423     365.995    -443.520
  C        1.347     366.991    -445.654
  C        1.806     366.931    -446.910
  O        2.164     368.195    -453.681
  O        2.404     370.693    -453.138
  H        1.999     368.601    -454.554
  H        3.033     363.246    -450.654
  H        3.089     364.420    -444.482
  H        0.619     367.720    -445.321
  H        1.451     367.637    -447.657
  H        4.279     365.771    -448.676
  H        2.089     363.949    -448.707
  H        0.616     365.522    -449.696
  H        2.988     366.396    -451.435
  H        0.931     367.405    -452.188
  H        0.429     367.812    -450.529
  P        0.264     363.206    -451.172
  C        1.506     360.945    -451.681
  O        1.269     362.017    -450.786
  O       -0.190     362.885    -452.671
  O       -0.850     363.456    -450.210
  H        0.463     363.197    -453.323
  H        2.201     360.261    -451.242
  H        1.910     361.326    -452.595
  H        0.585     360.438    -451.882

 6  7  8  9  10  11  12  13  14  15  16  27  31  32  33  34  35 0
 6-311+G(2d,p)
 ****
 36  37 0
 6-311+G(2d,p)
 ****
 1  2  3  4  5  17  18  19  20  21  22  23  24  25 0
 3-21G
 ****
 26  28  29  30  38  39  40  41  42  43  44  45 0
 3-21G
 ****


