%nproc=1
%NoSave
%Mem=1900MB
#P OB98/GEN NMR

erre ene a

0 1
  C     -123.353      53.186     358.104
  O     -121.987      53.382     358.417
  H     -123.932      54.003     358.543
  H     -123.705      52.239     358.522
  H     -123.494      53.198     357.019
  P     -120.962      52.264     357.892
  C     -119.876      52.004     360.229
  O     -120.630      51.386     359.193
  C     -120.397      51.575     361.598
  O     -121.836      51.608     361.616
  C     -119.996      50.165     362.010
  O     -118.692      50.162     362.568
  C     -121.053      49.856     363.060
  O     -120.676      50.457     364.313
  C     -122.304      50.554     362.498
  N     -125.228      46.338     362.663
  C     -124.302      46.820     363.517
  N     -123.523      47.914     363.386
  C     -123.782      48.548     362.228
  C     -124.697      48.171     361.256
  C     -125.449      47.013     361.510
  N     -126.394      46.523     360.631
  N     -124.685      49.061     360.200
  C     -123.823      49.985     360.559
  N     -123.220      49.704     361.760
  O     -119.791      52.773     357.121
  O     -121.951      51.306     357.073
  H     -121.424      50.328     364.926
  H     -122.792      51.194     357.550
  H     -124.162      46.245     364.429
  H     -123.607      50.890     359.998
  H     -122.892      51.031     363.294
  H     -121.166      48.787     363.240
  H     -120.096      49.455     361.178
  H     -120.047      52.309     362.336
  H     -119.931      53.096     360.136
  H     -126.739      45.593     360.803
  H     -126.461      46.953     359.721
  H     -118.830      51.698     360.105
  P     -117.509      49.303     361.910
  C     -117.450      47.848     364.029
  O     -117.601      47.865     362.615
  O     -116.174      49.960     361.947
  O     -118.016      49.009     360.423
  H     -117.266      48.723     359.865
  H     -117.529      46.842     364.384
  H     -118.216      48.446     364.477
  H     -116.491      48.244     364.290

 6  7  8  9  10  11  12  13  14  15  25  28  32  33  34  35 0
 6-311+G(2d,p)
 ****
 36  39  40 0
 6-311+G(2d,p)
 ****
 1  2  3  4  5  16  17  18  19  20  21  22  23  24 0
 3-21G
 ****
 26  27  29  30  31  37  38  41  42  43  44  45  46  47 0
 3-21G
 ****
 48 0
 3-21G
 ****


