%nproc=1
%NoSave
%Mem=1900MB
#P OB98/GEN NMR

erre ene a

0 1
  C     -345.857    -749.567    -853.337
  O     -344.907    -749.162    -852.365
  P     -344.543    -750.192    -851.190
  C     -342.342    -751.164    -852.193
  O     -342.943    -750.335    -851.193
  C     -340.866    -750.813    -852.360
  O     -340.739    -749.502    -852.944
  C     -340.067    -750.765    -851.073
  O     -339.684    -752.059    -850.625
  C     -338.855    -749.963    -851.489
  O     -337.908    -750.813    -852.156
  C     -339.472    -748.935    -852.493
  N     -337.779    -744.195    -852.104
  C     -337.244    -745.262    -852.804
  N     -336.129    -745.042    -853.525
  N     -337.777    -746.463    -852.794
  C     -338.918    -746.543    -852.063
  C     -339.534    -745.539    -851.326
  C     -338.904    -744.231    -851.308
  O     -339.287    -743.268    -850.655
  N     -340.676    -745.998    -850.727
  C     -340.782    -747.261    -851.136
  N     -339.722    -747.634    -851.924
  O     -345.027    -751.594    -851.794
  O     -345.180    -749.899    -849.878
  H     -338.380    -751.226    -852.899
  H     -345.248    -752.224    -851.071
  H     -337.334    -743.284    -852.170
  H     -341.603    -747.914    -850.881
  H     -338.856    -748.814    -853.376
  H     -338.339    -749.481    -850.643
  H     -335.762    -744.101    -853.673
  H     -340.624    -750.230    -850.281
  H     -335.767    -745.785    -854.082
  H     -340.429    -751.548    -853.063
  H     -342.861    -751.009    -853.155
  H     -342.472    -752.213    -851.887
  P     -339.519    -752.280    -849.043
  C     -341.948    -753.201    -849.037
  O     -340.607    -753.403    -848.651
  O     -340.102    -750.916    -848.438
  O     -338.105    -752.531    -848.604
  H     -339.699    -750.739    -847.557
  H     -342.031    -752.713    -850.014
  H     -342.455    -752.591    -848.285
  H     -342.445    -754.162    -849.083
  H     -345.995    -748.781    -854.050
  H     -346.789    -749.781    -852.857
  H     -345.504    -750.444    -853.837

 3  4  5  6  7  8  9  10  11  12  23  26  30  31  33  0
 6-311+G(2d,p)
 ****
 35  36  37  38 0
 6-311+G(2d,p)
 ****
 1  2  13  14  15  16  17  18  19  20  21  22  24  25  27  28  29 0
 3-21G
 ****
 32  34  39  40  41  42  43  44  45  46  47  48  49 0
 3-21G
 ****


