%nproc=1
%NoSave
%Mem=1900MB
#P OB98/GEN NMR

erre ene a

0 1
  C      -86.791      62.705    -219.527
  O      -85.619      62.917    -218.732
  P      -84.317      63.488    -219.473
  C      -82.568      61.694    -218.755
  O      -83.022      63.041    -218.645
  C      -81.738      61.316    -217.528
  O      -82.567      60.763    -216.489
  C      -80.694      60.248    -217.817
  O      -79.573      60.808    -218.472
  C      -80.390      59.716    -216.421
  O      -79.317      60.441    -215.799
  C      -81.720      59.939    -215.665
  N      -82.380      58.697    -215.305
  C      -83.003      58.675    -214.052
  O      -82.955      59.664    -213.316
  N      -83.642      57.527    -213.656
  C      -83.636      56.486    -214.429
  N      -84.281      55.375    -213.982
  C      -82.964      56.459    -215.748
  C      -82.361      57.588    -216.118
  O      -84.401      65.064    -219.205
  O      -84.269      63.180    -220.936
  H      -79.339      60.184    -214.855
  H      -84.028      65.554    -219.957
  H      -82.979      55.565    -216.354
  H      -81.840      57.655    -217.068
  H      -81.540      60.506    -214.741
  H      -80.083      58.666    -216.453
  H      -81.135      59.451    -218.431
  H      -81.247      62.223    -217.145
  H      -84.727      55.430    -213.073
  H      -81.972      61.573    -219.662
  H      -84.332      54.508    -214.499
  H      -83.437      61.037    -218.861
  P      -79.074      60.118    -219.825
  C      -77.258      58.507    -218.987
  O      -77.528      59.767    -219.571
  O      -78.968      61.372    -220.822
  O      -79.920      59.028    -220.391
  H      -78.762      61.066    -221.724
  H      -76.186      58.310    -219.063
  H      -77.797      57.715    -219.510
  H      -77.540      58.520    -217.930
  H      -87.577      62.325    -218.909
  H      -86.574      62.000    -220.302
  H      -87.098      63.632    -219.965

 3  4  5  6  7  8  9  10  11  12  13  21  23  27  28  29  30  32 0
 6-311+G(2d,p)
 ****
 34  35 0
 6-311+G(2d,p)
 ****
 1  2  14  15  16  17  18  19  20  22  24  25  26 0
 3-21G
 ****
 31  33  36  37  38  39  40  41  42  43  44  45  46 0
 3-21G
 ****


