%nproc=1
%NoSave
%Mem=1900MB
#P OB98/GEN NMR

erre ene a

0 1
  C      174.649     168.370     138.087
  O      175.883     167.696     138.225
  H      174.189     168.068     137.144
  H      174.812     169.451     138.066
  H      173.970     168.112     138.905
  P      176.679     167.818     139.610
  C      176.492     165.325     140.250
  O      176.125     166.659     140.567
  C      177.154     164.642     141.452
  O      176.184     164.574     142.541
  C      177.629     163.200     141.180
  O      178.766     162.966     142.023
  C      176.420     162.409     141.646
  O      176.685     161.034     141.760
  C      176.093     163.184     142.930
  N      174.791     162.899     143.518
  C      174.716     161.869     144.451
  O      175.671     161.184     144.817
  N      173.471     161.630     144.972
  C      172.329     162.312     144.672
  O      171.247     162.073     145.195
  C      172.470     163.383     143.674
  C      173.676     163.628     143.156
  O      176.714     169.178     140.221
  O      178.151     167.301     139.244
  H      178.748     168.065     139.134
  H      175.927     160.597     142.206
  H      173.398     160.890     145.654
  H      171.581     163.937     143.404
  H      173.813     164.419     142.426
  H      176.872     163.011     143.679
  H      175.611     162.499     140.917
  H      177.907     163.031     140.136
  H      177.982     165.270     141.804
  H      177.193     165.352     139.409
  H      175.597     164.768     139.949
  P      180.171     162.411     141.480
  C      181.232     164.659     140.753
  O      180.691     163.409     140.334
  O      180.133     160.979     141.056
  O      181.205     162.630     142.682
  H      181.928     161.978     142.612
  H      181.537     165.221     139.895
  H      182.077     164.488     141.386
  H      180.488     165.207     141.292

 6  7  8  9  10  11  12  13  14  15  16  27  31  32  33  34  35 0
 6-311+G(2d,p)
 ****
 36  37 0
 6-311+G(2d,p)
 ****
 1  2  3  4  5  17  18  19  20  21  22  23  24  25 0
 3-21G
 ****
 26  28  29  30  38  39  40  41  42  43  44  45 0
 3-21G
 ****


