%nproc=1
%NoSave
%Mem=1900MB
#P OB98/GEN NMR

erre ene a

0 1
  C       18.252     172.343     308.730
  O       18.199     173.678     308.268
  P       17.278     174.760     309.002
  C       19.092     175.249     310.739
  O       17.748     174.837     310.535
  C       19.453     175.260     312.224
  O       20.901     175.188     312.363
  C       18.981     176.500     312.993
  O       18.658     176.068     314.320
  C       20.230     177.366     313.032
  O       20.198     178.340     314.069
  C       21.299     176.294     313.202
  N       25.483     178.800     314.728
  C       24.306     178.564     315.345
  N       23.231     177.905     314.862
  C       23.457     177.479     313.607
  C       24.594     177.674     312.842
  C       25.655     178.362     313.459
  N       26.875     178.587     312.861
  N       24.425     177.136     311.580
  C       23.210     176.627     311.591
  N       22.616     176.750     312.816
  O       15.807     174.581     308.810
  O       17.769     176.158     308.402
  H       19.581     179.047     313.806
  H       17.103     176.504     307.770
  H       24.217     178.937     316.360
  H       22.720     176.156     310.747
  H       21.359     175.931     314.234
  H       20.342     177.891     312.075
  H       18.129     177.010     312.535
  H       19.046     174.346     312.680
  H       19.203     176.260     310.338
  H       27.606     178.966     313.438
  H       27.123     178.046     312.033
  H       19.773     174.587     310.188
  P       17.820     177.034     315.292
  C       15.632     176.208     314.241
  O       16.438     177.337     314.546
  O       18.555     178.229     315.793
  O       17.380     176.060     316.490
  H       17.110     176.599     317.262
  H       16.006     175.731     313.335
  H       14.603     176.541     314.076
  H       15.642     175.490     315.065
  H       18.919     171.778     308.112
  H       17.274     171.912     308.687
  H       18.604     172.329     309.740

 3  4  5  6  7  8  9  10  11  12  22  25  29  30  31  32 0
 6-311+G(2d,p)
 ****
 33  36  37 0
 6-311+G(2d,p)
 ****
 1  2  13  14  15  16  17  18  19  20  21  23  24  26 0
 3-21G
 ****
 27  28  34  35  38  39  40  41  42  43  44  45  46  47  48 0
 3-21G
 ****


