%nproc=1
%NoSave
%Mem=1900MB
#P OB98/GEN NMR

erre ene a

0 1
  C      139.031      45.096    -365.179
  O      137.872      45.282    -365.969
  H      139.515      44.165    -365.482
  H      138.759      45.024    -364.122
  H      139.728      45.925    -365.328
  P      137.019      46.613    -365.691
  C      138.901      48.228    -366.476
  O      138.082      47.779    -365.404
  C      138.626      49.701    -366.755
  O      137.211      49.905    -366.976
  C      138.989      50.623    -365.597
  O      140.382      50.880    -365.528
  C      138.163      51.855    -365.933
  O      138.829      52.693    -366.887
  C      136.896      51.249    -366.548
  N      133.023      53.977    -364.641
  C      133.907      54.232    -365.631
  N      134.905      53.448    -366.088
  C      134.923      52.275    -365.432
  C      134.088      51.872    -364.406
  C      133.092      52.783    -364.008
  N      132.207      52.533    -362.982
  N      134.439      50.615    -363.955
  C      135.465      50.262    -364.701
  N      135.791      51.231    -365.610
  O      136.366      46.330    -364.257
  O      135.987      46.931    -366.721
  H      139.747      52.797    -366.566
  H      135.440      46.039    -364.373
  H      133.805      55.201    -366.113
  H      136.007      49.327    -364.617
  H      136.560      51.802    -367.434
  H      137.976      52.454    -365.039
  H      138.629      50.202    -364.653
  H      139.159      49.990    -367.668
  H      138.675      47.641    -367.374
  H      139.952      48.074    -366.209
  H      131.569      53.258    -362.708
  H      132.325      51.692    -362.430
  P      140.967      51.448    -364.150
  C      141.363      49.548    -362.403
  O      140.455      50.477    -362.979
  O      140.146      52.800    -363.910
  O      142.442      51.688    -364.149
  H      140.721      53.469    -363.488
  H      140.863      48.984    -361.644
  H      142.187      50.076    -361.970
  H      141.723      48.884    -363.161

 6  7  8  9  10  11  12  13  14  15  25  28  32  33  34  35 0
 6-311+G(2d,p)
 ****
 36  37  40 0
 6-311+G(2d,p)
 ****
 1  2  3  4  5  16  17  18  19  20  21  22  23  24 0
 3-21G
 ****
 26  27  29  30  31  38  39 41  42  43  44  45  46  47  48 0
 3-21G
 ****


