%nproc=1
%NoSave
%Mem=1900MB
#P OB98/GEN NMR

erre ene a

0 1
  C       -9.645      15.657      -3.934
  O       -8.466      16.240      -4.458
  P       -7.169      16.392      -3.533
  C       -8.166      18.203      -1.952
  O       -7.199      17.874      -2.925
  C       -7.706      19.385      -1.090
  O       -8.711      19.610      -0.071
  C       -6.397      19.161      -0.342
  O       -5.882      20.431       0.063
  C       -6.862      18.391       0.874
  O       -5.921      18.449       1.942
  C       -8.242      19.032       1.169
  N       -9.206      18.034       1.667
  C       -8.936      17.463       2.906
  O       -7.991      17.809       3.612
  N       -9.741      16.418       3.271
  C      -10.732      15.881       2.503
  O      -11.227      14.778       2.699
  C      -11.121      16.673       1.325
  C      -10.335      17.685       0.950
  O       -5.977      16.441      -4.599
  O       -6.977      15.303      -2.535
  H       -6.357      18.044       2.728
  H       -5.580      15.556      -4.701
  H       -9.456      15.912       4.100
  H      -11.997      16.365       0.771
  H      -10.568      18.254       0.055
  H       -8.161      19.827       1.920
  H       -6.989      17.336       0.602
  H       -5.643      18.610      -0.911
  H       -7.647      20.287      -1.711
  H       -8.364      17.326      -1.330
  H       -9.116      18.462      -2.434
  P       -4.291      20.629       0.063
  C       -4.295      19.689       2.452
  O       -3.849      20.725       1.602
  O       -3.766      21.707      -0.825
  O       -3.747      19.184      -0.370
  H       -2.829      19.260      -0.689
  H       -3.570      19.558       3.259
  H       -4.400      18.744       1.912
  H       -5.260      19.968       2.884
  H      -10.401      15.639      -4.691
  H       -9.988      16.234      -3.101
  H       -9.437      14.657      -3.614

 3  4  5  6  7  8  9  10  11  12  13  23  28  29  30  31  32 0
 6-311+G(2d,p)
 ****
 33  34 0
 6-311+G(2d,p)
 ****
 1  2  14  15  16  17  18  19  20  21  22  24  25  26  27 0
 3-21G
 ****
 35  36  37  38  39  40  41  42  43  44  45 0
 3-21G
 ****


