%nproc=1
%NoSave
%Mem=1900MB
#P OB98/GEN NMR

erre ene a

0 1
  C     -272.897     -18.059    -697.235
  O     -273.714     -18.622    -696.228
  P     -273.082     -19.546    -695.083
  C     -273.630     -21.644    -696.446
  O     -272.613     -20.918    -695.770
  C     -274.503     -22.427    -695.465
  O     -275.447     -23.232    -696.216
  C     -273.734     -23.372    -694.528
  O     -274.433     -23.382    -693.280
  C     -273.878     -24.719    -695.209
  O     -273.671     -25.810    -694.333
  C     -275.301     -24.593    -695.740
  N     -277.603     -28.978    -697.026
  C     -277.467     -28.348    -695.839
  N     -276.823     -27.195    -695.574
  C     -276.275     -26.686    -696.693
  C     -276.303     -27.235    -697.968
  C     -277.023     -28.441    -698.121
  N     -277.202     -29.073    -699.328
  N     -275.575     -26.452    -698.848
  C     -275.130     -25.447    -698.108
  N     -275.574     -25.522    -696.824
  O     -273.933     -19.714    -693.867
  O     -271.701     -18.821    -694.722
  H     -274.253     -25.709    -693.560
  H     -271.780     -18.367    -693.861
  H     -277.953     -28.831    -694.986
  H     -274.483     -24.656    -698.458
  H     -276.054     -24.762    -694.961
  H     -273.160     -24.797    -696.027
  H     -272.686     -23.079    -694.373
  H     -275.088     -21.706    -694.880
  H     -273.141     -22.344    -697.131
  H     -277.851     -29.853    -699.344
  H     -277.019     -28.559    -700.185
  H     -274.246     -20.958    -697.034
  P     -273.649     -23.103    -691.909
  C     -272.555     -25.415    -691.947
  O     -272.333     -24.018    -691.942
  O     -274.471     -23.200    -690.670
  O     -273.061     -21.623    -692.114
  H     -272.808     -21.243    -691.247
  H     -272.764     -25.753    -690.921
  H     -271.659     -25.917    -692.316
  H     -273.401     -25.683    -692.590
  H     -273.501     -17.479    -697.901
  H     -272.414     -18.842    -697.782
  H     -272.158     -17.430    -696.784

 3  4  5  6  7  8  9  10  11  12  22  25  29  30  31  32 0
 6-311+G(2d,p)
 ****
 33  36  37 0
 6-311+G(2d,p)
 ****
 1  2  13  14  15  16  17  18  19  20  21  23  24  26 0
 3-21G
 ****
 27  28  34  35  38  39  40  41  42  43  44  45  46  47  48 0
 3-21G
 ****


