%nproc=1
%NoSave
%Mem=1900MB
#P OB98/GEN NMR

erre ene a

0 1
  C       29.262     114.655     828.984
  O       30.195     114.450     830.032
  H       28.254     114.577     829.395
  H       29.389     113.888     828.213
  H       29.398     115.649     828.553
  P       31.749     114.481     829.628
  C       33.181     113.149     827.929
  O       31.885     113.377     828.470
  C       33.548     111.672     828.039
  O       32.637     110.871     827.273
  C       34.942     111.334     827.513
  O       35.921     111.594     828.510
  C       34.805     109.845     827.253
  O       34.958     109.117     828.485
  C       33.353     109.726     826.748
  N       33.452     106.791     822.538
  C       33.837     106.543     823.812
  N       33.828     107.384     824.868
  C       33.366     108.592     824.512
  C       32.940     108.992     823.249
  C       32.991     108.021     822.231
  N       32.604     108.273     820.932
  N       32.534     110.309     823.256
  C       32.652     110.681     824.518
  N       33.183     109.691     825.306
  O       32.714     114.379     830.758
  O       31.817     115.854     828.798
  H       35.914     109.105     828.685
  H       31.030     115.951     828.235
  H       34.188     105.538     824.010
  H       32.345     111.649     824.909
  H       32.858     108.824     827.137
  H       35.558     109.468     826.562
  H       35.160     111.851     826.572
  H       33.449     111.371     829.086
  H       33.920     113.759     828.455
  H       32.853     107.588     820.239
  H       32.382     109.228     820.682
  H       33.158     113.465     826.879
  P       37.445     111.915     828.114
  C       39.345     110.590     827.009
  O       37.998     110.559     827.464
  O       38.261     112.487     829.223
  O       37.329     112.898     826.856
  H       38.173     113.356     826.709
  H       39.604     109.637     826.597
  H       39.994     110.812     827.830
  H       39.450     111.344     826.257

 6  7  8  9  10  11  12  13  14  15  25  28  32  33  34  35 0
 6-311+G(2d,p)
 ****
 36  39  40 0
 6-311+G(2d,p)
 ****
 1  2  3  4  5  16  17  18  19  20  21  22  23  24 0
 3-21G
 ****
 26  27  29  30  31  37  38  41  42  43  44  45  46  47 0
 3-21G
 ****
 48 0
 3-21G
 ****


