%nproc=1
%NoSave
%Mem=1900MB
#P OB98/GEN NMR

erre ene a

0 1
  C     -314.316     383.301      92.907
  O     -315.635     383.659      92.537
  H     -314.215     382.216      92.835
  H     -314.119     383.607      93.938
  H     -313.597     383.769      92.231
  P     -315.981     385.226      92.553
  C     -315.629     385.291      89.989
  O     -315.240     385.807      91.255
  C     -315.181     386.227      88.870
  O     -315.783     387.525      89.022
  C     -313.677     386.472      88.822
  O     -313.010     385.402      88.175
  C     -313.623     387.749      88.002
  O     -313.766     387.436      86.601
  C     -314.864     388.518      88.492
  N     -314.828     393.533      89.588
  C     -314.972     392.872      88.420
  N     -314.927     391.540      88.199
  C     -314.710     390.870      89.341
  C     -314.540     391.411      90.608
  C     -314.619     392.811      90.714
  N     -314.480     393.483      91.909
  N     -314.335     390.418      91.540
  C     -314.429     389.294      90.858
  N     -314.619     389.515      89.516
  O     -315.720     385.932      93.838
  O     -317.514     385.203      92.088
  H     -314.678     387.118      86.463
  H     -317.653     384.527      91.400
  H     -315.148     393.491      87.547
  H     -314.383     388.300      91.286
  H     -315.373     389.033      87.672
  H     -312.673     388.276      88.113
  H     -313.273     386.669      89.819
  H     -315.540     385.811      87.919
  H     -316.717     385.160      89.949
  H     -314.378     394.484      91.870
  H     -314.204     392.951      92.721
  H     -315.160     384.311      89.873
  P     -311.416     385.411      88.010
  C     -311.017     384.771      90.468
  O     -310.810     385.750      89.457
  O     -310.901     386.268      86.908
  O     -311.024     383.876      87.804
  H     -310.301     383.797      87.153
  H     -310.573     385.104      91.383
  H     -310.567     383.848      90.168
  H     -312.067     384.625      90.614

 6  7  8  9  10  11  12  13  14  15  25  28  32  33  34  35 0
 6-311+G(2d,p)
 ****
 36  39  40 0
 6-311+G(2d,p)
 ****
 1  2  3  4  5  16  17  18  19  20  21  22  23  24 0
 3-21G
 ****
 26  27  29  30  31  37  38  41  42  43  44  45  46  47 0
 3-21G
 ****
 48 0
 3-21G
 ****


