%nproc=1
%NoSave
%Mem=1900MB
#P OB98/GEN NMR

erre ene a

0 1
  C       55.826    -127.319     -41.082
  O       57.139    -127.447     -40.564
  H       55.223    -128.156     -40.714
  H       55.834    -127.346     -42.175
  H       55.378    -126.385     -40.733
  P       58.287    -126.505     -41.175
  C       59.583    -126.415     -43.408
  O       58.546    -127.057     -42.665
  C       59.318    -126.500     -44.912
  O       58.038    -125.914     -45.240
  C       60.324    -125.738     -45.765
  O       61.630    -126.266     -45.747
  C       59.587    -125.621     -47.090
  O       59.708    -126.798     -47.889
  C       58.122    -125.456     -46.609
  N       57.642    -124.085     -46.750
  C       57.051    -123.767     -47.970
  O       56.946    -124.564     -48.904
  N       56.609    -122.476     -48.099
  C       56.741    -121.487     -47.170
  O       56.341    -120.341     -47.356
  C       57.409    -121.872     -45.913
  C       57.822    -123.137     -45.763
  O       59.533    -126.383     -40.348
  O       57.545    -125.110     -41.430
  H       59.562    -127.560     -47.295
  H       58.195    -124.379     -41.574
  H       56.165    -122.231     -48.971
  H       57.542    -121.108     -45.159
  H       58.315    -123.444     -44.844
  H       57.456    -126.110     -47.194
  H       59.948    -124.782     -47.690
  H       60.408    -124.718     -45.365
  H       59.279    -127.560     -45.192
  H       60.523    -126.928     -43.178
  H       59.659    -125.369     -43.094
  P       62.939    -125.410     -46.064
  C       64.207    -124.764     -48.262
  O       62.971    -125.080     -47.633
  O       64.210    -125.859     -45.414
  O       62.547    -123.972     -45.428
  H       63.375    -123.578     -45.079
  H       64.040    -124.574     -49.302
  H       64.883    -125.587     -48.154
  H       64.628    -123.894     -47.803

 6  7  8  9  10  11  12  13  14  15  16  26  31  32  33  34  35 0
 6-311+G(2d,p)
 ****
 36  37 0
 6-311+G(2d,p)
 ****
 1  2  3  4  5  17  18  19  20  21  22  23  24  25 0
 3-21G
 ****
 27  28  29  30  38  39  40  41  42  43  44  45 0
 3-21G
 ****


