%nproc=1
%NoSave
%Mem=1900MB
#P OB98/GEN NMR

erre ene a

0 1
  C      427.373     277.360     180.643
  O      427.867     277.597     179.335
  H      426.637     278.131     180.881
  H      428.190     277.415     181.369
  H      426.893     276.378     180.689
  P      429.058     276.634     178.831
  C      427.727     276.194     176.630
  O      428.918     276.678     177.227
  C      427.925     276.026     175.127
  O      428.080     277.320     174.490
  C      429.173     275.231     174.739
  O      429.023     273.833     174.883
  C      429.294     275.635     173.274
  O      428.292     274.943     172.504
  C      428.987     277.144     173.359
  N      430.198     277.964     173.541
  C      430.693     278.608     172.402
  O      430.141     278.486     171.314
  N      431.847     279.358     172.516
  C      432.434     279.479     173.670
  N      433.572     280.233     173.715
  C      431.936     278.822     174.898
  C      430.835     278.095     174.765
  O      428.524     275.173     179.191
  O      430.419     276.947     179.360
  H      427.473     274.951     173.037
  H      429.117     274.486     178.784
  H      432.464     278.937     175.833
  H      430.402     277.587     175.622
  H      428.462     277.499     172.457
  H      430.259     275.386     172.834
  H      430.065     275.586     175.274
  H      427.019     275.567     174.710
  H      433.919     280.610     172.845
  H      426.917     276.916     176.826
  H      434.175     280.257     174.526
  H      427.452     275.225     177.068
  P      430.357     272.933     174.855
  C      429.184     270.787     175.759
  O      429.890     271.405     174.687
  O      430.866     272.998     176.369
  O      431.393     273.394     173.888
  H      431.845     272.988     176.406
  H      428.945     269.778     175.494
  H      428.281     271.328     175.951
  H      429.795     270.790     176.637

 6  7  8  9  10  11  12  13  14  15  16  26  30  31  32  33  35 0
 6-311+G(2d,p)
 ****
 37  38 0
 6-311+G(2d,p)
 ****
 1  2  3  4  5  17  18  19  20  21  22  23  24  25 0
 3-21G
 ****
 27  28  29  34  36  39  40  41  42  43  44  45  46 0
 3-21G
 ****


