%nproc=1
%NoSave
%Mem=1900MB
#P OB98/GEN NMR

erre ene a

0 1
  C     -324.832    -816.219    -107.883
  O     -323.420    -816.246    -107.862
  H     -325.170    -815.186    -107.737
  H     -325.235    -816.833    -107.073
  H     -325.216    -816.578    -108.845
  P     -322.667    -817.618    -108.189
  C     -320.371    -816.474    -107.921
  O     -321.215    -817.538    -107.497
  C     -319.130    -816.425    -107.032
  O     -319.500    -816.125    -105.670
  C     -318.350    -817.732    -106.979
  O     -317.600    -817.922    -108.164
  C     -317.523    -817.510    -105.721
  O     -316.390    -816.669    -105.987
  C     -318.537    -816.777    -104.809
  N     -319.200    -817.681    -103.854
  C     -318.462    -818.019    -102.735
  O     -317.314    -817.613    -102.519
  N     -319.065    -818.891    -101.862
  C     -320.268    -819.505    -102.056
  O     -320.674    -820.442    -101.374
  C     -321.034    -819.040    -103.227
  C     -320.464    -818.173    -104.064
  O     -322.656    -818.029    -109.626
  O     -323.437    -818.691    -107.279
  H     -324.066    -819.196    -107.832
  H     -315.925    -816.545    -105.139
  H     -318.518    -819.189    -101.064
  H     -322.025    -819.461    -103.392
  H     -321.003    -817.844    -104.945
  H     -318.036    -815.982    -104.238
  H     -317.131    -818.445    -105.304
  H     -319.032    -818.569    -106.811
  H     -318.488    -815.599    -107.396
  H     -320.922    -815.534    -107.836
  H     -320.094    -816.643    -108.970
  P     -317.477    -819.368    -108.841
  C     -318.622    -818.630    -111.014
  O     -317.444    -819.168    -110.434
  O     -318.468    -820.375    -108.364
  O     -315.976    -819.832    -108.505
  H     -316.000    -820.719    -108.076
  H     -318.490    -818.540    -112.072
  H     -318.817    -817.665    -110.596
  H     -319.448    -819.279    -110.812

 6  7  8  9  10  11  12  13  14  15  16  27  31  32  33  34  35 0
 6-311+G(2d,p)
 ****
 36  37 0
 6-311+G(2d,p)
 ****
 1  2  3  4  5  17  18  19  20  21  22  23  24  25 0
 3-21G
 ****
 26  28  29  30  38  39  40  41  42  43  44  45 0
 3-21G
 ****


