%nproc=1
%NoSave
%Mem=1900MB
#P OB98/GEN NMR

erre ene a

0 1
  C      -26.777    -596.946     -10.600
  O      -27.187    -597.366     -11.902
  P      -26.602    -596.520     -13.141
  C      -26.683    -598.471     -14.853
  O      -27.156    -597.174     -14.498
  C      -27.693    -599.223     -15.721
  O      -28.681    -599.857     -14.865
  C      -28.458    -598.355     -16.729
  O      -28.654    -599.108     -17.929
  C      -29.825    -598.178     -16.073
  O      -30.834    -597.866     -17.019
  C      -29.976    -599.542     -15.404
  N      -34.854    -600.328     -14.300
  C      -34.174    -600.538     -15.477
  N      -34.901    -601.013     -16.522
  N      -32.892    -600.318     -15.628
  C      -32.287    -599.881     -14.496
  C      -32.853    -599.634     -13.265
  C      -34.281    -599.851     -13.127
  O      -34.951    -599.622     -12.124
  N      -31.917    -599.202     -12.360
  C      -30.792    -599.170     -13.046
  N      -30.967    -599.564     -14.348
  O      -25.043    -596.890     -13.133
  O      -26.814    -595.044     -13.010
  H      -31.665    -597.733     -16.516
  H      -24.509    -596.080     -13.065
  H      -35.845    -600.496     -14.242
  H      -29.832    -598.846     -12.659
  H      -30.243    -600.321     -16.132
  H      -29.765    -597.372     -15.341
  H      -35.870    -601.265     -16.454
  H      -27.977    -597.400     -16.955
  H      -34.407    -601.222     -17.381
  H      -27.157    -600.028     -16.241
  H      -26.490    -599.044     -13.943
  H      -25.731    -598.359     -15.389
  P      -27.489    -599.004     -19.032
  C      -27.404    -601.520     -19.698
  O      -27.763    -600.201     -20.063
  O      -26.185    -599.486     -18.231
  O      -27.325    -597.647     -19.623
  H      -25.383    -599.087     -18.615
  H      -27.146    -601.605     -18.637
  H      -26.535    -601.833     -20.295
  H      -28.235    -602.185     -19.912
  H      -27.226    -597.579      -9.863
  H      -27.086    -595.934     -10.438
  H      -25.712    -597.010     -10.524

 3  4  5  6  7  8  9  10  11  12  23  26  30  31  33  0
 6-311+G(2d,p)
 ****
 35  36  37  38 0
 6-311+G(2d,p)
 ****
 1  2  13  14  15  16  17  18  19  20  21  22  24  25  27  28  29 0
 3-21G
 ****
 32  34  39  40  41  42  43  44  45  46  47  48  49 0
 3-21G
 ****


