%nproc=1
%NoSave
%Mem=1900MB
#P OB98/GEN NMR

erre ene a

0 1
  C     1026.078     158.861     541.521
  O     1026.314     158.016     540.413
  H     1026.959     158.892     542.171
  H     1025.872     159.867     541.151
  H     1025.212     158.515     542.091
  P     1026.741     156.501     540.749
  C     1029.259     157.044     540.991
  O     1028.260     156.345     540.272
  C     1030.503     157.250     540.118
  O     1031.157     155.994     539.882
  C     1030.207     157.831     538.739
  O     1029.980     159.244     538.791
  C     1031.492     157.487     538.015
  O     1032.510     158.463     538.345
  C     1031.857     156.121     538.600
  N     1033.203     153.263     534.557
  C     1033.809     154.321     535.159
  N     1033.384     155.030     536.214
  C     1032.223     154.558     536.684
  C     1031.492     153.499     536.181
  C     1032.024     152.830     535.054
  N     1031.401     151.772     534.420
  N     1030.350     153.281     536.918
  C     1030.382     154.204     537.856
  N     1031.486     155.003     537.761
  O     1025.920     155.643     539.682
  O     1026.455     156.060     542.144
  H     1032.145     159.338     538.124
  H     1025.641     154.796     540.097
  H     1034.749     154.626     534.723
  H     1029.632     154.319     538.637
  H     1032.931     156.051     538.835
  H     1031.397     157.498     536.925
  H     1029.352     157.310     538.252
  H     1031.199     157.894     540.679
  H     1029.545     156.466     541.883
  H     1031.921     151.222     533.760
  H     1030.523     151.443     534.818
  H     1028.856     158.010     541.322
  P     1028.519     159.780     538.403
  C     1029.233     160.168     535.934
  O     1028.731     160.751     537.138
  O     1028.185     160.781     539.600
  O     1027.469     158.730     538.247
  H     1027.197     160.874     539.696
  H     1029.323     160.924     535.182
  H     1028.558     159.409     535.597
  H     1030.193     159.734     536.121

 6  7  8  9  10  11  12  13  14  15  25  28  32  33  34  35 0
 6-311+G(2d,p)
 ****
 36  39  40 0
 6-311+G(2d,p)
 ****
 1  2  3  4  5  16  17  18  19  20  21  22  23  24 0
 3-21G
 ****
 26  27  29  30  31  37  38  41  42  43  44  45  46  47  48 0
 3-21G
 ****


