%nproc=1
%NoSave
%Mem=1900MB
#P OB98/GEN NMR

erre ene a

0 1
  C      -65.356     380.316      39.308
  O      -66.000     379.648      40.369
  H      -64.616     381.004      39.724
  H      -66.090     380.892      38.739
  H      -64.846     379.614      38.643
  P      -66.780     378.287      40.062
  C      -69.123     379.085      40.795
  O      -68.306     378.653      39.715
  C      -69.940     380.324      40.427
  O      -69.092     381.283      39.756
  C      -71.089     380.005      39.466
  O      -72.290     379.600      40.102
  C      -71.276     381.336      38.742
  O      -72.185     382.192      39.450
  C      -69.864     381.937      38.740
  N      -69.169     383.867      34.058
  C      -70.101     384.226      35.013
  N      -70.973     385.192      34.654
  N      -70.171     383.670      36.193
  C      -69.298     382.654      36.369
  C      -68.343     382.195      35.488
  C      -68.221     382.863      34.212
  O      -67.406     382.593      33.339
  N      -67.665     381.113      35.999
  C      -68.269     380.867      37.145
  N      -69.211     381.824      37.449
  O      -66.911     377.599      41.506
  O      -66.107     377.361      39.094
  H      -72.190     383.062      39.002
  H      -66.903     376.630      41.405
  H      -69.144     384.349      33.178
  H      -68.036     380.045      37.809
  H      -69.885     383.004      38.992
  H      -71.697     381.181      37.746
  H      -71.018     385.592      33.733
  H      -70.783     379.257      38.731
  H      -71.786     385.351      35.251
  H      -70.305     380.804      41.342
  H      -68.450     379.314      41.621
  H      -69.782     378.276      41.122
  P      -72.909     378.150      39.840
  C      -75.090     379.389      39.068
  O      -74.195     378.309      38.911
  O      -73.526     377.759      41.263
  O      -71.944     377.121      39.345
  H      -72.917     377.173      41.752
  H      -75.878     379.306      38.349
  H      -74.567     380.310      38.919
  H      -75.503     379.369      40.055

 6  7  8  9  10  11  12  13  14  15  26  29  33  34 0
 6-311+G(2d,p)
 ****
 36  38  39  40  41 0
 6-311+G(2d,p)
 ****
 1  2  3  4  5  16  17  18  19  20  21  22  23  24  25 0
 3-21G
 ****
 27  28  30  31  32  35  37  42  43  44  45  46  47 0
 3-21G
 ****
 48  49 0
 3-21G
 ****


