%nproc=1
%NoSave
%Mem=1900MB
#P OB98/GEN NMR

erre ene a

0 1
  C      364.150     255.529    -368.557
  O      363.943     255.168    -369.905
  H      363.915     256.595    -368.440
  H      365.190     255.375    -368.270
  H      363.491     254.954    -367.898
  P      364.394     253.706    -370.399
  C      362.006     253.258    -371.241
  O      363.384     253.351    -371.609
  C      361.113     253.114    -372.478
  O      361.083     254.368    -373.198
  C      361.567     252.024    -373.460
  O      360.439     251.231    -373.848
  C      362.099     252.807    -374.648
  O      362.057     252.053    -375.858
  C      361.200     254.048    -374.614
  N      361.737     255.170    -375.371
  C      361.182     255.375    -376.648
  O      360.304     254.623    -377.070
  N      361.648     256.419    -377.404
  C      362.618     257.161    -376.968
  N      363.046     258.178    -377.774
  C      363.265     256.946    -375.655
  C      362.780     255.948    -374.910
  O      364.467     252.677    -369.320
  O      365.786     253.945    -371.154
  H      361.154     251.666    -375.949
  H      366.280     253.093    -371.209
  H      364.085     257.581    -375.336
  H      363.185     255.723    -373.926
  H      360.198     253.819    -374.988
  H      363.139     253.099    -374.466
  H      362.324     251.367    -373.042
  H      360.085     252.939    -372.140
  H      362.571     258.281    -378.667
  H      361.737     254.155    -370.674
  H      363.798     258.806    -377.534
  H      361.882     252.376    -370.606
  P      360.313     249.794    -373.132
  C      357.768     249.951    -372.627
  O      358.801     249.274    -373.341
  O      360.382     250.157    -371.571
  O      361.370     248.823    -373.525
  H      361.274     249.984    -371.226
  H      356.823     249.505    -372.858
  H      357.755     250.982    -372.912
  H      357.951     249.873    -371.576

 6  7  8  9  10  11  12  13  14  15  16  26  30  31  32  33  35 0
 6-311+G(2d,p)
 ****
 37  38 0
 6-311+G(2d,p)
 ****
 1  2  3  4  5  17  18  19  20  21  22  23  24  25 0
 3-21G
 ****
 27  28  29  34  36  39  40  41  42  43  44  45  46 0
 3-21G
 ****


