%nproc=1
%NoSave
%Mem=1900MB
#P OB98/GEN NMR

erre ene a

0 1
  C     -129.967     381.978    -159.509
  O     -129.955     382.720    -158.305
  H     -130.573     382.488    -160.262
  H     -128.942     381.890    -159.881
  H     -130.365     380.974    -159.329
  P     -131.373     382.994    -157.609
  C     -133.499     384.309    -158.331
  O     -132.136     384.008    -158.593
  C     -134.063     385.141    -159.478
  O     -134.017     384.383    -160.710
  C     -135.522     385.543    -159.290
  O     -135.670     386.684    -158.466
  C     -135.918     385.845    -160.724
  O     -135.401     387.129    -161.116
  C     -135.199     384.723    -161.489
  N     -137.884     381.936    -164.843
  C     -137.142     383.054    -164.992
  N     -136.439     383.722    -164.054
  C     -136.550     383.118    -162.859
  C     -137.270     381.973    -162.556
  C     -137.965     381.372    -163.618
  N     -138.755     380.249    -163.463
  N     -137.161     381.671    -161.212
  C     -136.379     382.610    -160.717
  N     -136.008     383.528    -161.666
  O     -131.010     383.919    -156.353
  O     -132.161     381.783    -157.234
  H     -134.429     387.031    -161.200
  H     -131.763     383.960    -155.733
  H     -137.103     383.464    -165.995
  H     -136.056     382.678    -159.687
  H     -134.863     385.037    -162.485
  H     -137.004     385.884    -160.866
  H     -136.124     384.703    -158.924
  H     -133.428     386.026    -159.610
  H     -133.568     384.878    -157.397
  H     -139.330     379.981    -164.247
  H     -138.937     379.910    -162.533
  H     -134.064     383.377    -158.229
  P     -136.715     386.584    -157.245
  C     -139.281     386.250    -157.039
  O     -138.173     386.476    -157.901
  O     -136.689     388.064    -156.636
  O     -136.380     385.546    -156.225
  H     -136.842     388.045    -155.672
  H     -140.179     386.202    -157.618
  H     -139.354     387.052    -156.334
  H     -139.144     385.326    -156.516

 6  7  8  9  10  11  12  13  14  15  25  28  32  33  34  35 0
 6-311+G(2d,p)
 ****
 36  39  40 0
 6-311+G(2d,p)
 ****
 1  2  3  4  5  16  17  18  19  20  21  22  23  24 0
 3-21G
 ****
 26  27  29  30  31  37  38  41  42  43  44  45  46  47 0
 3-21G
 ****
 48 0
 3-21G
 ****


