%nproc=1
%NoSave
%Mem=1900MB
#P OB98/GEN NMR

erre ene a

0 1
  C     -255.952    -172.344     -97.511
  O     -256.440    -172.874     -96.291
  P     -255.650    -172.530     -94.938
  C     -257.811    -172.527     -93.445
  O     -256.546    -173.092     -93.729
  C     -258.081    -172.559     -91.938
  O     -258.247    -173.942     -91.518
  C     -256.962    -171.953     -91.079
  O     -257.589    -171.315     -89.957
  C     -256.182    -173.174     -90.632
  O     -255.416    -172.936     -89.462
  C     -257.316    -174.188     -90.445
  N     -256.865    -175.579     -90.468
  C     -257.229    -176.397     -89.405
  O     -257.887    -176.014     -88.437
  N     -256.780    -177.692     -89.469
  C     -255.967    -178.217     -90.433
  O     -255.580    -179.376     -90.431
  C     -255.576    -177.291     -91.505
  C     -256.045    -176.042     -91.480
  O     -255.842    -170.944     -94.860
  O     -254.233    -172.994     -94.934
  H     -256.708    -170.651     -95.191
  H     -254.760    -172.245     -89.663
  H     -257.063    -178.315     -88.725
  H     -254.918    -177.665     -92.282
  H     -255.767    -175.341     -92.259
  H     -257.848    -173.990     -89.507
  H     -255.495    -173.482     -91.429
  H     -256.358    -171.227     -91.630
  H     -259.031    -172.046     -91.747
  H     -258.590    -173.099     -93.959
  H     -257.843    -171.500     -93.825
  P     -257.195    -169.786     -89.636
  C     -259.540    -169.356     -88.562
  O     -258.140    -169.291     -88.445
  O     -257.826    -169.058     -90.918
  O     -255.731    -169.532     -89.488
  H     -258.741    -169.332     -91.097
  H     -259.982    -169.299     -87.562
  H     -259.862    -170.290     -89.030
  H     -259.901    -168.508     -89.151
  H     -256.583    -172.661     -98.315
  H     -254.955    -172.695     -97.679
  H     -255.949    -171.275     -97.460

 3  4  5  6  7  8  9  10  11  12  13  24  28  29  30  31  32 0
 6-311+G(2d,p)
 ****
 33  34 0
 6-311+G(2d,p)
 ****
 1  2  14  15  16  17  18  19  20  21  22  23  25  26  27 0
 3-21G
 ****
 35  36  37  38  39  40  41  42  43  44  45 0
 3-21G
 ****


