%nproc=1
%NoSave
%Mem=1900MB
#P OB98/GEN NMR

erre ene a

0 1
  C     -182.265    -150.719      53.667
  O     -181.457    -151.187      52.606
  H     -181.631    -150.558      54.543
  H     -183.025    -151.463      53.919
  H     -182.743    -149.773      53.403
  P     -182.113    -151.359      51.154
  C     -181.929    -149.040      50.041
  O     -182.754    -149.945      50.762
  C     -182.744    -148.354      48.947
  O     -183.224    -149.331      47.996
  C     -183.984    -147.636      49.462
  O     -183.646    -146.408      50.078
  C     -184.792    -147.504      48.181
  O     -184.334    -146.392      47.397
  C     -184.481    -148.843      47.477
  N     -185.543    -149.834      47.647
  C     -186.344    -150.082      46.537
  O     -186.215    -149.492      45.465
  N     -187.329    -151.019      46.710
  C     -187.655    -151.629      47.885
  O     -188.605    -152.395      48.008
  C     -186.790    -151.311      49.030
  C     -185.790    -150.444      48.861
  O     -183.019    -152.532      50.989
  O     -180.846    -151.459      50.178
  H     -184.522    -145.590      47.921
  H     -180.726    -152.385      49.897
  H     -187.928    -151.202      45.922
  H     -187.007    -151.787      49.976
  H     -185.146    -150.192      49.695
  H     -184.335    -148.682      46.401
  H     -185.852    -147.344      48.376
  H     -184.530    -148.281      50.159
  H     -182.084    -147.658      48.411
  H     -181.106    -149.600      49.585
  H     -181.515    -148.303      50.737
  P     -184.536    -145.849      51.285
  C     -183.788    -147.357      53.227
  O     -184.819    -147.066      52.289
  O     -185.742    -145.069      50.880
  O     -183.519    -144.931      52.112
  H     -183.851    -144.013      52.126
  H     -184.086    -148.182      53.840
  H     -183.614    -146.500      53.843
  H     -182.890    -147.608      52.703

 6  7  8  9  10  11  12  13  14  15  16  26  31  32  33  34  35 0
 6-311+G(2d,p)
 ****
 36  37 0
 6-311+G(2d,p)
 ****
 1  2  3  4  5  17  18  19  20  21  22  23  24  25 0
 3-21G
 ****
 27  28  29  30  38  39  40  41  42  43  44  45 0
 3-21G
 ****


