%nproc=1
%NoSave
%Mem=1900MB
#P OB98/GEN NMR

erre ene a

0 1
  C     -230.000      53.931    -895.950
  O     -230.339      54.837    -894.920
  H     -229.018      54.213    -896.360
  H     -230.737      53.998    -896.760
  H     -229.948      52.915    -895.570
  P     -231.664      54.502    -894.070
  C     -233.296      55.896    -895.580
  O     -232.880      54.631    -895.110
  C     -234.668      55.795    -896.270
  O     -235.451      54.771    -895.600
  C     -235.480      57.102    -896.230
  O     -236.212      57.217    -897.460
  C     -236.439      56.888    -895.080
  O     -237.593      57.708    -895.190
  C     -236.695      55.365    -895.190
  N     -237.174      54.805    -893.920
  C     -238.408      55.290    -893.450
  O     -239.014      56.160    -894.080
  N     -238.889      54.805    -892.260
  C     -238.184      53.957    -891.570
  N     -238.701      53.534    -890.390
  C     -236.862      53.468    -892.010
  C     -236.436      53.900    -893.190
  O     -231.801      55.802    -893.150
  O     -231.598      53.209    -893.320
  H     -238.151      57.580    -894.380
  H     -231.657      56.633    -893.630
  H     -236.304      52.764    -891.390
  H     -235.483      53.577    -893.600
  H     -237.444      55.161    -895.970
  H     -235.942      57.117    -894.120
  H     -234.835      57.990    -896.100
  H     -234.506      55.457    -897.300
  H     -239.608      53.929    -890.110
  H     -232.558      56.304    -896.280
  H     -238.218      52.930    -889.730
  H     -233.350      56.579    -894.720
  P     -235.541      57.915    -898.730
  C     -235.652      60.301    -897.710
  O     -234.823      59.277    -898.250
  O     -236.398      58.049    -899.940
  O     -234.283      56.955    -899.030
  H     -234.210      56.863    -900.000
  H     -235.048      61.141    -897.435
  H     -236.161      59.929    -896.845
  H     -236.370      60.603    -898.444

 6  7  8  9  10  11  12  13  14  15  16  26  30  31  32  33  35 0
 6-311+G(2d,p)
 ****
 37  38 0
 6-311+G(2d,p)
 ****
 1  2  3  4  5  17  18  19  20  21  22  23  24  25 0
 3-21G
 ****
 27  28  29  34  36  39  40  41  42  43  44  45  46 0
 3-21G
 ****


