%nproc=1
%NoSave
%Mem=1900MB
#P OB98/GEN NMR

erre ene a

0 1
  C     -180.319      26.871     -87.404
  O     -179.903      25.509     -87.575
  P     -180.211      24.654     -88.899
  C     -177.768      23.864     -89.133
  O     -179.131      23.472     -89.033
  C     -176.830      22.820     -88.515
  O     -176.973      22.812     -87.062
  C     -177.067      21.380     -89.006
  O     -175.779      20.769     -89.135
  C     -177.858      20.779     -87.851
  O     -177.862      19.364     -87.839
  C     -177.127      21.430     -86.672
  N     -177.805      21.329     -85.383
  C     -177.073      20.820     -84.300
  O     -175.921      20.415     -84.438
  N     -177.684      20.760     -83.070
  C     -178.906      21.160     -82.926
  N     -179.446      21.083     -81.678
  C     -179.718      21.684     -84.039
  C     -179.110      21.739     -85.224
  O     -180.335      25.487     -90.135
  O     -181.583      23.884     -88.603
  H     -182.105      23.827     -89.426
  H     -178.454      19.070     -87.120
  H     -180.732      22.014     -83.875
  H     -179.632      22.142     -86.089
  H     -176.121      21.007     -86.591
  H     -178.896      21.116     -87.925
  H     -177.580      21.323     -89.971
  H     -175.797      23.126     -88.725
  H     -178.851      20.727     -80.936
  H     -177.638      24.811     -88.603
  H     -180.384      21.374     -81.454
  H     -177.516      24.025     -90.188
  P     -175.481      19.794     -90.368
  C     -172.939      20.367     -90.450
  O     -173.935      19.374     -90.296
  O     -175.483      20.818     -91.606
  O     -176.473      18.701     -90.604
  H     -175.714      20.333     -92.421
  H     -172.169      20.212     -89.690
  H     -173.339      21.377     -90.343
  H     -172.485      20.266     -91.441
  H     -179.999      27.224     -86.446
  H     -181.386      26.929     -87.468
  H     -179.883      27.476     -88.171

 3  4  5  6  7  8  9  10  11  12  13  24  27  28  29  30  32 0
 6-311+G(2d,p)
 ****
 34  35 0
 6-311+G(2d,p)
 ****
 1  2  14  15  16  17  18  19  20  21  22  23  25  26 0
 3-21G
 ****
 31  33  36  37  38  39  40  41  42  43  44  45  46 0
 3-21G
 ****


