%nproc=1
%NoSave
%Mem=1900MB
#P OB98/GEN NMR

erre ene a

0 1
  C      247.590    -342.391     149.417
  O      247.513    -343.188     150.601
  P      248.740    -343.192     151.629
  C      247.578    -342.399     153.800
  O      248.190    -343.480     153.107
  C      246.978    -342.894     155.122
  O      245.979    -343.917     154.898
  C      248.010    -343.554     156.028
  O      248.985    -342.708     156.604
  C      247.138    -344.359     156.975
  O      246.637    -343.553     158.043
  C      245.986    -344.799     156.041
  N      246.093    -346.199     155.633
  C      245.097    -347.051     156.099
  O      244.192    -346.686     156.848
  N      245.195    -348.357     155.704
  C      246.188    -348.890     154.934
  O      246.240    -350.074     154.629
  C      247.226    -347.947     154.493
  C      247.135    -346.665     154.857
  O      249.684    -342.044     151.513
  O      249.492    -344.567     151.272
  H      247.400    -343.268     158.577
  H      250.454    -344.397     151.300
  H      244.477    -348.987     156.026
  H      248.034    -348.336     153.886
  H      247.889    -345.953     154.540
  H      245.017    -344.670     156.541
  H      247.692    -345.184     157.431
  H      248.573    -344.280     155.424
  H      246.486    -342.056     155.617
  H      246.802    -341.952     153.175
  H      248.326    -341.617     153.972
  P      250.490    -342.606     156.062
  C      250.904    -340.058     155.811
  O      251.119    -341.222     156.578
  O      250.734    -342.981     154.641
  O      251.236    -343.674     157.007
  H      251.957    -344.085     156.493
  H      251.413    -339.222     156.300
  H      249.837    -339.831     155.753
  H      251.317    -340.181     154.809
  H      246.690    -342.507     148.850
  H      248.426    -342.707     148.828
  H      247.711    -341.363     149.687

 3  4  5  6  7  8  9  10  11  12  13  23  28  29  30  31  32 0
 6-311+G(2d,p)
 ****
 33  34 0
 6-311+G(2d,p)
 ****
 1  2  14  15  16  17  18  19  20  21  22  24  25  26  27 0
 3-21G
 ****
 35  36  37  38  39  40  41  42  43  44  45 0
 3-21G
 ****


