%nproc=1
%NoSave
%Mem=1900MB
#P OB98/GEN NMR

erre ene a

0 1
  C     -209.102      28.061      93.868
  O     -208.680      28.637      92.650
  H     -209.963      27.415      93.669
  H     -209.408      28.840      94.570
  H     -208.308      27.454      94.310
  P     -207.329      29.497      92.633
  C     -205.912      27.355      92.830
  O     -206.212      28.630      93.386
  C     -204.400      27.142      92.807
  O     -203.788      28.049      91.863
  C     -203.719      27.425      94.140
  O     -203.936      26.380      95.066
  C     -202.278      27.601      93.691
  O     -201.629      26.334      93.525
  C     -202.447      28.310      92.329
  N     -202.191      29.747      92.425
  C     -200.856      30.129      92.511
  O     -199.919      29.334      92.501
  N     -200.631      31.471      92.675
  C     -201.589      32.415      92.896
  O     -201.336      33.552      93.282
  C     -202.979      31.966      92.731
  C     -203.214      30.669      92.519
  O     -207.457      30.910      93.098
  O     -206.861      29.428      91.102
  H     -207.090      30.268      90.659
  H     -201.446      26.007      94.430
  H     -199.664      31.750      92.782
  H     -203.767      32.703      92.829
  H     -204.233      30.307      92.428
  H     -201.762      27.882      91.587
  H     -201.701      28.177      94.415
  H     -204.082      28.375      94.547
  H     -204.200      26.116      92.474
  H     -206.301      27.318      91.807
  H     -206.404      26.581      93.428
  P     -203.952      26.686      96.638
  C     -206.361      27.525      96.946
  O     -204.983      27.884      96.908
  O     -202.610      26.863      97.267
  O     -204.708      25.421      97.271
  H     -204.172      25.072      98.010
  H     -206.952      28.398      97.131
  H     -206.522      26.812      97.728
  H     -206.644      27.096      96.008

 6  7  8  9  10  11  12  13  14  15  16  27  31  32  33  34  35 0
 6-311+G(2d,p)
 ****
 36  37 0
 6-311+G(2d,p)
 ****
 1  2  3  4  5  17  18  19  20  21  22  23  24  25 0
 3-21G
 ****
 26  28  29  30  38  39  40  41  42  43  44  45 0
 3-21G
 ****


