%nproc=1
%NoSave
%Mem=1900MB
#P OB98/GEN NMR

erre ene a

0 1
  C      747.392    -899.243    -290.713
  O      746.586    -898.853    -291.817
  P      745.470    -897.713    -291.571
  C      746.658    -895.713    -292.741
  O      746.233    -896.293    -291.528
  C      746.881    -894.213    -292.555
  O      745.716    -893.653    -291.908
  C      748.108    -893.843    -291.705
  O      748.618    -892.603    -292.220
  C      747.503    -893.623    -290.331
  O      748.338    -892.823    -289.505
  C      746.184    -892.983    -290.701
  N      744.788    -891.483    -286.076
  C      745.929    -891.183    -286.811
  N      746.766    -890.313    -286.253
  N      746.184    -891.673    -287.979
  C      745.239    -892.543    -288.426
  C      744.082    -892.943    -287.788
  C      743.786    -892.353    -286.510
  O      742.747    -892.533    -285.872
  N      743.420    -893.883    -288.523
  C      744.104    -893.983    -289.637
  N      745.187    -893.153    -289.639
  O      745.064    -897.963    -290.040
  O      744.289    -897.743    -292.510
  H      749.197    -893.283    -289.395
  H      744.268    -898.533    -289.989
  H      744.610    -891.053    -285.182
  H      743.871    -894.623    -290.472
  H      746.262    -891.913    -290.911
  H      747.354    -894.593    -289.830
  H      746.614    -889.843    -285.344
  H      748.890    -894.613    -291.721
  H      747.593    -890.043    -286.756
  H      746.953    -893.763    -293.551
  H      745.870    -895.863    -293.494
  H      747.574    -896.223    -293.107
  P      750.205    -892.443    -292.353
  C      750.199    -893.413    -294.755
  O      750.701    -893.513    -293.430
  O      750.762    -893.053    -290.980
  O      750.670    -891.033    -292.545
  H      751.566    -892.583    -290.713
  H      750.904    -893.883    -295.457
  H      750.065    -892.383    -295.069
  H      749.231    -893.913    -294.807
  H      748.081    -900.000    -291.024
  H      746.768    -899.627    -289.934
  H      747.934    -898.395    -290.350

 3  4  5  6  7  8  9  10  11  12  23  26  30  31 0
 6-311+G(2d,p)
 ****
 33  35  36  37  38 0
 6-311+G(2d,p)
 ****
 1  2  13  14  15  16  17  18  19  20  21  22  24  25 0
 3-21G
 ****
 27  28  29  32  34  39  40  41  42  43  44  45  46  47  48  49 0
 3-21G
 ****


