%nproc=1
%NoSave
%Mem=1900MB
#P OB98/GEN NMR

erre ene a

0 1
  C       72.794      77.987      43.970
  O       73.255      77.094      42.969
  P       72.240      76.127      42.202
  C       70.541      74.261      42.927
  O       71.625      75.102      43.258
  C       70.462      73.124      43.956
  O       71.517      72.168      43.723
  C       70.606      73.648      45.382
  O       69.332      73.876      45.963
  C       71.393      72.545      46.062
  O       70.518      71.470      46.453
  C       72.333      72.083      44.923
  N       73.571      72.851      44.689
  C       74.682      72.627      45.498
  O       74.715      71.793      46.397
  N       75.769      73.429      45.249
  C       75.856      74.371      44.265
  O       76.724      75.234      44.207
  C       74.765      74.365      43.286
  C       73.681      73.636      43.550
  O       73.211      75.211      41.321
  O       71.206      76.811      41.370
  H       69.875      71.838      47.085
  H       73.253      75.538      40.402
  H       76.527      73.369      45.921
  H       74.857      74.996      42.412
  H       72.844      73.647      42.857
  H       72.623      71.035      45.054
  H       71.863      72.901      46.977
  H       71.210      74.565      45.391
  H       69.503      72.604      43.836
  H       70.676      73.854      41.919
  H       69.608      74.833      42.923
  P       69.095      75.173      46.868
  C       70.339      76.049      48.931
  O       69.920      74.903      48.217
  O       67.671      75.577      47.058
  O       69.939      76.307      46.112
  H       69.344      76.841      45.546
  H       70.724      75.734      49.904
  H       69.500      76.734      49.085
  H       71.137      76.555      48.382
  H       73.621      78.543      44.360
  H       72.334      77.431      44.760
  H       72.080      78.661      43.545

 3  4  5  6  7  8  9  10  11  12  13  23  28  29  30  31  32 0
 6-311+G(2d,p)
 ****
 33  34 0
 6-311+G(2d,p)
 ****
 1  2  14  15  16  17  18  19  20  21  22  24  25  26  27 0
 3-21G
 ****
 35  36  37  38  39  40  41  42  43  44  45 0
 3-21G
 ****


