%nproc=1
%NoSave
%Mem=1900MB
#P OB98/GEN NMR

erre ene a

0 1
  C       45.275      36.271    -140.342
  O       46.058      37.417    -140.626
  H       44.233      36.578    -140.220
  H       45.619      35.810    -139.411
  H       45.340      35.550    -141.161
  P       47.574      37.152    -141.068
  C       49.750      36.506    -139.749
  O       48.328      36.482    -139.814
  C       50.232      35.690    -138.553
  O       49.699      34.352    -138.597
  C       51.738      35.475    -138.510
  O       52.443      36.644    -138.155
  C       51.835      34.367    -137.470
  O       51.835      34.890    -136.136
  C       50.548      33.550    -137.740
  N       50.846      32.250    -138.313
  C       51.571      31.380    -137.485
  O       51.891      31.733    -136.350
  N       51.940      30.157    -137.981
  C       51.641      29.839    -139.203
  N       52.067      28.622    -139.643
  C       50.880      30.725    -140.108
  C       50.519      31.906    -139.604
  O       48.184      38.629    -141.114
  O       47.731      36.386    -142.340
  H       52.530      35.580    -136.112
  H       47.994      39.156    -140.320
  H       50.645      30.407    -141.115
  H       49.958      32.618    -140.200
  H       49.990      33.393    -136.806
  H       52.756      33.787    -137.585
  H       52.091      35.074    -139.472
  H       49.874      36.180    -137.637
  H       52.632      28.069    -139.007
  H       50.113      37.537    -139.677
  H       51.962      28.303    -140.594
  H       50.132      36.081    -140.683
  P       54.036      36.636    -137.980
  C       55.652      35.930    -136.099
  O       54.352      35.774    -136.658
  O       54.689      37.976    -138.009
  O       54.522      35.648    -139.144
  H       54.166      34.743    -139.089
  H       55.743      35.312    -135.230
  H       55.802      36.954    -135.826
  H       56.388      35.642    -136.821

 6  7  8  9  10  11  12  13  14  15  16  26  30  31  32  33  35 0
 6-311+G(2d,p)
 ****
 37  38 0
 6-311+G(2d,p)
 ****
 1  2  3  4  5  17  18  19  20  21  22  23  24  25 0
 3-21G
 ****
 27  28  29  34  36  39  40  41  42  43  44  45  46 0
 3-21G
 ****


