%nproc=1
%NoSave
%Mem=1900MB
#P OB98/GEN NMR

erre ene a

0 1
  C      354.959    1035.936    -359.411
  O      355.314    1036.501    -360.660
  H      355.108    1034.857    -359.467
  H      353.905    1036.146    -359.197
  H      355.591    1036.342    -358.616
  P      355.343    1038.108    -360.743
  C      357.976    1038.169    -360.872
  O      356.790    1038.544    -360.185
  C      359.209    1038.483    -360.024
  O      359.064    1037.833    -358.731
  C      360.520    1038.010    -360.649
  O      361.543    1038.955    -360.326
  C      360.798    1036.700    -359.922
  O      362.171    1036.358    -359.950
  C      360.240    1037.005    -358.522
  N      359.914    1035.804    -357.765
  C      360.951    1034.894    -357.550
  O      362.069    1035.103    -358.013
  N      360.678    1033.724    -356.878
  C      359.482    1033.465    -356.493
  N      359.274    1032.288    -355.849
  C      358.340    1034.379    -356.731
  C      358.628    1035.521    -357.352
  O      354.339    1038.521    -359.565
  O      354.986    1038.664    -362.075
  H      362.700    1037.134    -359.638
  H      354.479    1038.010    -358.746
  H      357.342    1034.120    -356.396
  H      357.855    1036.257    -357.554
  H      360.953    1037.606    -357.937
  H      360.240    1035.879    -360.383
  H      360.452    1037.883    -361.730
  H      359.230    1039.567    -359.842
  H      360.078    1031.669    -355.734
  H      358.044    1038.693    -361.831
  H      358.366    1031.954    -355.555
  H      357.923    1037.098    -361.075
  P      361.893    1040.107    -361.379
  C      361.090    1041.940    -359.749
  O      361.029    1041.418    -361.059
  O      361.938    1039.697    -362.820
  O      363.371    1040.573    -360.901
  H      363.910    1040.724    -361.702
  H      360.468    1042.808    -359.682
  H      362.100    1042.206    -359.518
  H      360.748    1041.202    -359.054

 6  7  8  9  10  11  12  13  14  15  16  26  30  31  32  33  35 0
 6-311+G(2d,p)
 ****
 37  38 0
 6-311+G(2d,p)
 ****
 1  2  3  4  5  17  18  19  20  21  22  23  24  25 0
 3-21G
 ****
 27  28  29  34  36  39  40  41  42  43  44  45  46 0
 3-21G
 ****


