%nproc=1
%NoSave
%Mem=1900MB
#P OB98/GEN NMR

erre ene a

0 1
  C      321.346      18.978    -343.033
  O      320.147      18.427    -343.550
  P      320.111      18.031    -345.108
  C      317.857      16.808    -344.656
  O      318.578      17.720    -345.464
  C      316.898      15.974    -345.509
  O      315.829      16.837    -345.978
  C      317.534      15.326    -346.746
  O      316.842      14.091    -346.970
  C      317.199      16.302    -347.856
  O      317.257      15.709    -349.147
  C      315.809      16.764    -347.422
  N      314.545      19.239    -351.648
  C      314.931      17.921    -351.475
  N      314.922      17.148    -352.580
  N      315.296      17.412    -350.326
  C      315.237      18.305    -349.309
  C      314.913      19.639    -349.361
  C      314.477      20.179    -350.626
  O      314.048      21.317    -350.806
  N      315.059      20.240    -348.136
  C      315.396      19.251    -347.330
  N      315.470      18.053    -347.988
  O      320.804      16.594    -345.124
  O      320.770      19.002    -346.037
  H      316.892      16.351    -349.790
  H      321.761      16.665    -345.315
  H      314.258      19.571    -352.553
  H      315.590      19.342    -346.273
  H      315.025      16.052    -347.720
  H      317.912      17.137    -347.839
  H      314.625      17.465    -353.490
  H      318.608      15.148    -346.642
  H      315.171      16.171    -352.477
  H      316.440      15.206    -344.869
  H      317.270      17.368    -343.922
  H      318.557      16.161    -344.116
  P      317.633      12.723    -346.671
  C      315.660      11.449    -345.584
  O      316.562      11.536    -346.668
  O      318.024      12.874    -345.121
  O      318.851      12.511    -347.506
  H      318.869      12.423    -344.953
  H      314.780      10.882    -345.902
  H      315.336      12.434    -345.250
  H      316.138      10.922    -344.753
  H      321.221      19.190    -341.992
  H      321.577      19.882    -343.556
  H      322.145      18.278    -343.161

 3  4  5  6  7  8  9  10  11  12  23  26  30  31 0
 6-311+G(2d,p)
 ****
 33  35  36  37  38 0
 6-311+G(2d,p)
 ****
 1  2  13  14  15  16  17  18  19  20  21  22  24  25 0
 3-21G
 ****
 27  28  29  32  34  39  40  41  42  43  44  45  46  47  48  49 0
 3-21G
 ****


