%nproc=1
%NoSave
%Mem=1900MB
#P OB98/GEN NMR

erre ene a

0 1
  C      -83.328     -36.926    -229.791
  O      -83.242     -37.111    -231.201
  P      -84.107     -38.276    -231.878
  C      -85.557     -38.293    -234.089
  O      -84.375     -37.934    -233.415
  C      -85.781     -37.331    -235.279
  O      -86.062     -35.996    -234.794
  C      -84.562     -37.231    -236.197
  O      -84.560     -38.242    -237.188
  C      -84.720     -35.829    -236.766
  O      -85.719     -35.813    -237.796
  C      -85.220     -35.051    -235.522
  N      -84.211     -34.515    -234.580
  C      -83.920     -33.149    -234.590
  O      -84.451     -32.331    -235.333
  N      -82.986     -32.729    -233.672
  C      -82.450     -33.474    -232.662
  O      -81.663     -33.036    -231.835
  C      -82.900     -34.875    -232.611
  C      -83.731     -35.321    -233.558
  O      -85.542     -38.134    -231.193
  O      -83.531     -39.654    -231.697
  H      -86.558     -36.115    -237.392
  H      -85.748     -38.926    -230.665
  H      -82.717     -31.755    -233.711
  H      -82.534     -35.489    -231.796
  H      -84.070     -36.356    -233.524
  H      -85.854     -34.214    -235.815
  H      -83.795     -35.486    -237.229
  H      -83.636     -37.253    -235.610
  H      -86.650     -37.685    -235.848
  H      -86.418     -38.250    -233.417
  H      -85.484     -39.325    -234.445
  P      -83.323     -39.257    -237.286
  C      -83.280     -41.731    -237.958
  O      -83.822     -40.458    -238.236
  O      -82.708     -39.675    -235.988
  O      -82.270     -38.492    -238.226
  H      -81.602     -38.010    -237.686
  H      -83.818     -42.481    -238.563
  H      -83.398     -41.984    -236.897
  H      -82.220     -41.753    -238.227
  H      -82.695     -36.115    -229.498
  H      -83.014     -37.820    -229.294
  H      -84.339     -36.704    -229.521

 3  4  5  6  7  8  9  10  11  12  13  23  28  29  30  31  32 0
 6-311+G(2d,p)
 ****
 33  34 0
 6-311+G(2d,p)
 ****
 1  2  14  15  16  17  18  19  20  21  22  24  25  26  27 0
 3-21G
 ****
 35  36  37  38  39  40  41  42  43  44  45 0
 3-21G
 ****


