%nproc=1
%NoSave
%Mem=1900MB
#P OB98/GEN NMR

erre ene a

0 1
  C      993.328     170.253    -630.120
  O      994.054     170.082    -628.916
  H      993.597     169.446    -630.807
  H      993.585     171.209    -630.587
  H      992.254     170.207    -629.920
  P      993.835     171.194    -627.781
  C      996.221     172.191    -627.888
  O      995.287     171.414    -627.144
  C      997.350     172.681    -626.986
  O      996.843     173.622    -626.024
  C      998.038     171.574    -626.192
  O      999.021     170.929    -626.982
  C      998.671     172.375    -625.063
  O      999.898     172.974    -625.524
  C      997.622     173.472    -624.797
  N      997.057     173.362    -619.693
  C      998.148     173.487    -620.471
  N      998.236     173.459    -621.821
  C      997.023     173.277    -622.373
  C      995.817     173.114    -621.711
  C      995.859     173.173    -620.296
  N      994.741     173.032    -619.508
  N      994.782     172.945    -622.602
  C      995.349     173.051    -623.786
  N      996.708     173.217    -623.695
  O      992.726     170.925    -626.821
  O      993.647     172.509    -628.679
  H     1000.557     172.250    -625.596
  H      994.274     172.508    -629.426
  H      999.085     173.639    -619.938
  H      994.815     173.043    -624.731
  H      998.097     174.440    -624.595
  H      998.924     171.758    -624.195
  H      997.317     170.862    -625.763
  H      998.074     173.214    -627.617
  H      995.714     173.054    -628.342
  H      994.878     172.887    -618.525
  H      993.870     172.764    -619.955
  H      996.615     171.561    -628.694
  P      998.956     169.350    -627.282
  C      999.431     168.995    -624.774
  O      999.813     168.677    -626.104
  O      999.326     168.969    -628.672
  O      997.449     168.950    -626.898
  H      997.239     168.075    -627.293
  H     1000.075     168.487    -624.087
  H      998.420     168.686    -624.610
  H      999.510     170.051    -624.623

 6  7  8  9  10  11  12  13  14  15  25  28  32  33  34  35 0
 6-311+G(2d,p)
 ****
 36  39  40 0
 6-311+G(2d,p)
 ****
 1  2  3  4  5  16  17  18  19  20  21  22  23  24 0
 3-21G
 ****
 26  27  29  30  31  37  38  41  42  43  44  45  46  47 0
 3-21G
 ****
 48 0
 3-21G
 ****


