%nproc=1
%NoSave
%Mem=1900MB
#P OB98/GEN NMR

erre ene a

0 1
  C     -122.831      -6.037     241.998
  O     -123.252      -6.340     240.685
  H     -122.244      -6.876     242.380
  H     -123.705      -5.900     242.640
  H     -122.213      -5.137     242.022
  P     -123.722      -5.144     239.733
  C     -125.970      -5.245     241.000
  O     -124.972      -4.410     240.428
  C     -127.377      -4.701     240.747
  O     -127.603      -3.536     241.572
  C     -127.581      -4.261     239.295
  O     -127.999      -5.295     238.419
  C     -128.664      -3.193     239.438
  O     -129.979      -3.777     239.383
  C     -128.399      -2.601     240.827
  N     -128.872       2.473     240.419
  C     -129.835       1.494     240.244
  N     -131.059       1.932     239.876
  N     -129.598       0.220     240.395
  C     -128.306      -0.070     240.664
  C     -127.259       0.812     240.840
  C     -127.545       2.229     240.738
  O     -126.731       3.136     240.902
  N     -126.074       0.155     241.059
  C     -126.388      -1.120     240.925
  N     -127.744      -1.306     240.766
  O     -124.415      -5.904     238.498
  O     -122.631      -4.238     239.247
  H     -130.161      -4.018     238.454
  H     -124.293      -5.382     237.686
  H     -129.120       3.442     240.315
  H     -125.687      -1.945     240.985
  H     -129.332      -2.461     241.387
  H     -128.609      -2.467     238.625
  H     -131.274       2.891     239.662
  H     -126.679      -3.778     238.905
  H     -131.743       1.239     239.554
  H     -128.118      -5.455     241.046
  H     -125.769      -5.279     242.073
  H     -125.878      -6.264     240.615
  P     -127.189      -5.612     237.079
  C     -129.049      -5.077     235.300
  O     -127.810      -4.743     235.896
  O     -127.648      -7.100     236.722
  O     -125.705      -5.495     237.180
  H     -126.983      -7.751     237.021
  H     -129.278      -4.368     234.532
  H     -129.819      -5.059     236.043
  H     -128.987      -6.057     234.874

 6  7  8  9  10  11  12  13  14  15  26  29  33  34 0
 6-311+G(2d,p)
 ****
 36  38  39  40  41 0
 6-311+G(2d,p)
 ****
 1  2  3  4  5  16  17  18  19  20  21  22  23  24  25 0
 3-21G
 ****
 27  28  30  31  32  35  37  42  43  44  45  46  47 0
 3-21G
 ****
 48  49 0
 3-21G
 ****


