%nproc=1
%NoSave
%Mem=1900MB
#P OB98/GEN NMR

erre ene a

0 1
  C     -139.257     249.620      33.155
  O     -140.247     250.335      33.855
  H     -139.419     249.762      32.082
  H     -139.331     248.551      33.371
  H     -138.260     249.986      33.409
  P     -140.278     250.269      35.459
  C     -141.070     248.543      37.189
  O     -140.819     248.792      35.811
  C     -142.112     247.439      37.368
  O     -143.445     247.998      37.205
  C     -141.971     246.286      36.361
  O     -142.051     245.035      37.046
  C     -143.180     246.448      35.456
  O     -143.566     245.236      34.818
  C     -144.198     247.040      36.436
  N     -145.333     247.644      35.753
  C     -146.414     246.797      35.483
  O     -146.372     245.613      35.824
  N     -147.486     247.293      34.785
  C     -147.461     248.515      34.353
  N     -148.543     248.937      33.644
  C     -146.328     249.436      34.592
  C     -145.311     248.941      35.295
  O     -141.019     251.386      36.117
  O     -138.741     250.192      35.896
  H     -142.784     244.869      34.347
  H     -138.660     250.500      36.829
  H     -146.357     250.444      34.206
  H     -144.435     249.542      35.520
  H     -144.572     246.270      37.126
  H     -142.950     247.182      34.672
  H     -141.039     246.322      35.797
  H     -142.059     247.072      38.400
  H     -149.293     248.269      33.499
  H     -141.413     249.473      37.656
  H     -148.627     249.855      33.239
  H     -140.134     248.227      37.659
  P     -140.762     244.612      37.909
  C     -138.254     244.132      37.452
  O     -139.508     244.520      36.912
  O     -141.061     243.089      38.301
  O     -140.555     245.462      39.122
  H     -141.248     243.025      39.257
  H     -137.520     244.116      36.674
  H     -138.338     243.156      37.884
  H     -137.959     244.831      38.206

 6  7  8  9  10  11  12  13  14  15  16  26  30  31  32  33  35 0
 6-311+G(2d,p)
 ****
 37  38 0
 6-311+G(2d,p)
 ****
 1  2  3  4  5  17  18  19  20  21  22  23  24  25 0
 3-21G
 ****
 27  28  29  34  36  39  40  41  42  43  44  45  46 0
 3-21G
 ****


