%nproc=1
%NoSave
%Mem=1900MB
#P OB98/GEN NMR

erre ene a

0 1
  C       32.947    -230.345    -320.741
  O       33.998    -231.210    -320.354
  H       32.463    -230.758    -321.629
  H       33.337    -229.351    -320.986
  H       32.204    -230.266    -319.944
  P       34.897    -230.803    -319.093
  C       37.145    -230.309    -320.269
  O       35.991    -229.764    -319.642
  C       38.397    -229.546    -319.840
  O       38.369    -228.198    -320.349
  C       38.566    -229.430    -318.323
  O       39.132    -230.616    -317.790
  C       39.513    -228.243    -318.243
  O       40.852    -228.669    -318.575
  C       38.968    -227.325    -319.353
  N       38.147    -222.941    -316.931
  C       39.308    -223.674    -317.062
  N       40.402    -223.187    -316.434
  N       39.391    -224.792    -317.737
  C       38.207    -225.195    -318.251
  C       36.983    -224.565    -318.175
  C       36.921    -223.288    -317.479
  O       35.917    -222.598    -317.361
  N       35.986    -225.316    -318.739
  C       36.616    -226.380    -319.207
  N       37.964    -226.359    -318.929
  O       35.479    -231.938    -318.306
  O       33.935    -229.883    -318.204
  H       41.427    -227.888    -318.490
  H       33.458    -230.414    -317.537
  H       38.142    -222.091    -316.387
  H       36.145    -227.188    -319.753
  H       39.762    -226.758    -319.850
  H       39.552    -227.799    -317.247
  H       40.366    -222.419    -315.779
  H       37.623    -229.162    -317.832
  H       41.248    -223.745    -316.470
  H       39.266    -230.040    -320.290
  H       37.005    -230.223    -321.353
  H       37.255    -231.367    -320.017
  P       38.561    -231.284    -316.446
  C       40.689    -230.476    -315.216
  O       39.272    -230.498    -315.241
  O       38.693    -232.767    -316.377
  O       37.059    -230.757    -316.343
  H       36.417    -231.306    -316.863
  H       41.022    -229.921    -314.364
  H       41.054    -230.013    -316.109
  H       41.060    -231.478    -315.156

 6  7  8  9  10  11  12  13  14  15  26  29  33  34 0
 6-311+G(2d,p)
 ****
 36  38  39  40  41 0
 6-311+G(2d,p)
 ****
 1  2  3  4  5  16  17  18  19  20  21  22  23  24  25 0
 3-21G
 ****
 27  28  30  31  32  35  37  42  43  44  45  46  47 0
 3-21G
 ****
 48  49 0
 3-21G
 ****


