%nproc=1
%NoSave
%Mem=1900MB
#P OB98/GEN NMR

erre ene a

0 1
  C      -60.314     921.020    -284.622
  O      -59.008     920.603    -285.022
  P      -58.656     920.781    -286.576
  C      -56.348     921.934    -286.300
  O      -57.691     922.055    -286.726
  C      -55.483     923.051    -286.901
  O      -55.352     922.933    -288.332
  C      -56.031     924.442    -286.631
  O      -55.702     924.855    -285.320
  C      -55.325     925.257    -287.715
  O      -54.010     925.661    -287.290
  C      -55.246     924.264    -288.882
  N      -56.127     926.115    -293.521
  C      -55.010     926.244    -292.717
  N      -53.966     926.934    -293.236
  N      -54.917     925.727    -291.515
  C      -56.030     925.065    -291.134
  C      -57.189     924.844    -291.857
  C      -57.282     925.419    -293.180
  O      -58.234     925.319    -293.934
  N      -58.074     924.064    -291.154
  C      -57.504     923.922    -289.964
  N      -56.243     924.445    -289.931
  O      -60.046     921.257    -287.219
  O      -58.148     919.522    -287.220
  H      -53.534     924.880    -286.933
  H      -60.403     920.537    -287.777
  H      -56.150     926.536    -294.439
  H      -57.952     923.412    -289.121
  H      -54.266     924.328    -289.390
  H      -55.871     926.185    -287.937
  H      -53.977     927.352    -294.150
  H      -57.116     924.461    -286.796
  H      -53.140     927.030    -292.659
  H      -54.478     922.954    -286.462
  H      -55.954     920.965    -286.590
  H      -56.326     921.967    -285.202
  P      -56.859     924.817    -284.210
  C      -55.359     923.551    -282.514
  O      -56.559     923.577    -283.247
  O      -58.151     924.363    -285.048
  O      -57.093     926.120    -283.513
  H      -58.915     924.906    -284.784
  H      -55.519     922.998    -281.587
  H      -55.017     924.564    -282.265
  H      -54.584     923.044    -283.100
  H      -60.435     920.855    -283.572
  H      -61.048     920.456    -285.158
  H      -60.437     922.061    -284.836

 3  4  5  6  7  8  9  10  11  12  23  26  30  31 0
 6-311+G(2d,p)
 ****
 33  35  36  37  38 0
 6-311+G(2d,p)
 ****
 1  2  13  14  15  16  17  18  19  20  21  22  24  25 0
 3-21G
 ****
 27  28  29  32  34  39  40  41  42  43  44  45  46  47  48  49 0
 3-21G
 ****


