%nproc=1
%NoSave
%Mem=1900MB
#P OB98/GEN NMR

erre ene a

0 1
  C     -519.443    -208.185     -75.186
  O     -519.266    -209.459     -75.778
  P     -518.017    -210.345     -75.313
  C     -518.696    -209.992     -72.829
  O     -517.657    -209.943     -73.796
  C     -518.232    -210.737     -71.577
  O     -519.135    -210.443     -70.476
  C     -518.194    -212.258     -71.745
  O     -517.112    -212.793     -70.963
  C     -519.485    -212.720     -71.101
  O     -519.405    -214.080     -70.677
  C     -519.614    -211.708     -69.959
  N     -522.963    -213.385     -66.571
  C     -521.589    -213.536     -66.594
  N     -521.051    -214.312     -65.628
  N     -520.815    -212.969     -67.481
  C     -521.494    -212.227     -68.391
  C     -522.852    -211.992     -68.458
  C     -523.694    -212.633     -67.476
  O     -524.916    -212.562     -67.416
  N     -523.164    -211.156     -69.498
  C     -522.006    -210.917     -70.091
  N     -520.971    -211.573     -69.477
  O     -516.806    -209.727     -76.160
  O     -518.158    -211.808     -75.570
  H     -519.459    -214.630     -71.480
  H     -516.570    -210.335     -76.889
  H     -523.515    -213.852     -65.870
  H     -521.867    -210.306     -70.969
  H     -518.977    -211.975     -69.110
  H     -520.309    -212.629     -71.815
  H     -521.602    -214.832     -64.958
  H     -518.097    -212.601     -72.779
  H     -520.055    -214.476     -65.651
  H     -517.248    -210.352     -71.284
  H     -519.554    -210.514     -73.255
  H     -519.005    -208.973     -72.573
  P     -516.494    -214.186     -71.483
  C     -514.578    -213.089     -72.860
  O     -515.771    -213.852     -72.871
  O     -517.789    -215.022     -71.918
  O     -515.665    -214.902     -70.468
  H     -517.602    -215.980     -71.866
  H     -513.764    -213.703     -73.256
  H     -514.312    -212.744     -71.861
  H     -514.710    -212.216     -73.512
  H     -520.314    -207.719     -75.597
  H     -518.585    -207.577     -75.385
  H     -519.564    -208.297     -74.129

 3  4  5  6  7  8  9  10  11  12  23  26  30  31 0
 6-311+G(2d,p)
 ****
 33  35  36  37  38 0
 6-311+G(2d,p)
 ****
 1  2  13  14  15  16  17  18  19  20  21  22  24  25 0
 3-21G
 ****
 27  28  29  32  34  39  40  41  42  43  44  45  46  47  48  49 0
 3-21G
 ****


