%nproc=1
%NoSave
%Mem=1900MB
#P OB98/GEN NMR

erre ene a

0 1
  C      514.777    -891.590     412.747
  O      514.588    -892.900     413.273
  P      514.973    -894.170     412.394
  C      515.894    -896.530     412.865
  O      515.787    -895.190     413.337
  C      517.347    -897.020     413.010
  O      518.236    -896.180     412.237
  C      517.874    -897.010     414.424
  O      517.368    -898.110     415.159
  C      519.375    -897.050     414.162
  O      519.813    -898.390     413.913
  C      519.510    -896.190     412.902
  N      523.614    -893.210     413.363
  C      523.488    -894.550     413.242
  N      522.350    -895.270     413.160
  C      521.270    -894.480     413.254
  C      521.244    -893.090     413.419
  C      522.501    -892.450     413.445
  N      522.635    -891.070     413.503
  N      519.942    -892.640     413.479
  C      519.199    -893.730     413.370
  N      519.954    -894.840     413.171
  O      515.627    -893.870     411.085
  O      513.573    -894.930     412.167
  H      519.782    -898.890     414.752
  H      513.388    -894.980     411.218
  H      524.415    -895.100     413.186
  H      518.125    -893.750     413.426
  H      520.230    -896.640     412.180
  H      519.953    -896.680     415.015
  H      517.621    -896.050     414.906
  H      517.395    -898.040     412.559
  H      515.580    -896.570     411.827
  H      523.581    -890.710     413.380
  H      521.843    -890.500     413.260
  H      515.219    -897.170     413.453
  P      517.244    -898.010     416.750
  C      515.836    -899.180     418.546
  O      515.945    -898.860     417.175
  O      517.292    -896.620     417.314
  O      518.447    -898.900     417.279
  H      518.786    -898.540     418.131
  H      516.518    -900.000     418.805
  H      514.803    -899.480     418.749
  H      516.083    -898.300     419.180
  H      514.466    -890.866     413.471
  H      514.195    -891.476     411.856
  H      515.812    -891.444     412.518

 3  4  5  6  7  8  9  10  11  12  22  25  29  30  31  32 0
 6-311+G(2d,p)
 ****
 33  36  37 0
 6-311+G(2d,p)
 ****
 1  2  13  14  15  16  17  18  19  20  21  23  24  26 0
 3-21G
 ****
 27  28  34  35  38  39  40  41  42  43  44  45  46  47  48 0
 3-21G
 ****


