%nproc=1
%NoSave
%Mem=1900MB
#P OB98/GEN NMR

erre ene a

0 1
  C      411.411     572.368    -249.592
  O      412.151     572.651    -248.418
  H      411.595     573.165    -250.316
  H      410.344     572.337    -249.365
  H      411.732     571.419    -250.020
  P      412.033     571.583    -247.225
  C      414.393     572.162    -246.296
  O      412.992     572.113    -246.051
  C      415.147     572.164    -244.970
  O      414.873     570.939    -244.249
  C      416.661     572.210    -245.117
  O      417.128     573.518    -245.404
  C      417.105     571.694    -243.759
  O      417.110     572.730    -242.773
  C      416.030     570.652    -243.432
  N      417.474     566.282    -241.213
  C      416.989     567.439    -240.700
  N      416.611     568.556    -241.365
  C      416.758     568.387    -242.693
  C      417.239     567.267    -243.356
  C      417.608     566.174    -242.558
  N      418.128     565.008    -243.071
  N      417.280     567.487    -244.718
  C      416.820     568.712    -244.874
  N      416.489     569.292    -243.682
  O      412.809     570.306    -247.809
  O      410.643     571.245    -246.809
  H      417.972     573.190    -242.863
  H      412.163     569.659    -248.144
  H      416.887     567.474    -239.621
  H      416.725     569.230    -245.829
  H      415.711     570.697    -242.382
  H      418.115     571.282    -243.821
  H      416.989     571.511    -245.895
  H      414.786     573.005    -244.361
  H      414.634     573.081    -246.848
  H      414.679     571.296    -246.900
  H      418.436     564.293    -242.429
  H      418.335     564.956    -244.052
  P      418.585     573.664    -246.056
  C      418.140     576.145    -246.720
  O      418.968     575.221    -246.033
  O      418.335     573.363    -247.618
  O      419.622     572.760    -245.479
  H      419.102     572.883    -247.988
  H      418.535     577.133    -246.604
  H      417.150     576.107    -246.315
  H      418.110     575.892    -247.759

 6  7  8  9  10  11  12  13  14  15  25  28  32  33  34  35 0
 6-311+G(2d,p)
 ****
 36  37  40 0
 6-311+G(2d,p)
 ****
 1  2  3  4  5  16  17  18  19  20  21  22  23  24 0
 3-21G
 ****
 26  27  29  30  31  38  39 41  42  43  44  45  46  47  48 0
 3-21G
 ****


