%nproc=1
%NoSave
%Mem=1900MB
#P OB98/GEN NMR

erre ene a

0 1
  C      607.653     326.850     178.486
  O      606.299     326.768     178.086
  H      608.235     327.394     177.732
  H      607.711     327.393     179.432
  H      608.070     325.849     178.624
  P      606.002     326.031     176.690
  C      604.279     326.703     174.854
  O      605.267     327.136     175.783
  C      604.087     327.775     173.786
  O      603.383     328.914     174.348
  C      605.388     328.335     173.229
  O      605.943     327.502     172.218
  C      604.918     329.660     172.662
  O      604.233     329.434     171.412
  C      603.922     330.122     173.737
  N      605.615     334.806     174.912
  C      605.003     334.320     173.811
  N      604.566     333.065     173.581
  C      604.804     332.283     174.647
  C      605.406     332.642     175.840
  C      605.832     333.976     175.953
  N      606.484     334.466     177.060
  N      605.498     331.551     176.690
  C      604.931     330.561     176.022
  N      604.524     330.942     174.774
  O      604.815     325.014     177.041
  O      607.167     325.370     176.036
  H      603.421     328.926     171.621
  H      604.708     324.358     176.326
  H      604.846     335.030     173.000
  H      604.803     329.554     176.401
  H      603.085     330.687     173.319
  H      605.738     330.350     172.456
  H      606.123     328.524     174.028
  H      603.459     327.361     172.987
  H      603.337     326.541     175.388
  H      606.881     335.393     176.986
  H      606.776     333.826     177.778
  H      604.598     325.771     174.392
  P      607.499     327.699     171.873
  C      608.655     328.499     169.678
  O      607.559     328.659     170.581
  O      607.919     326.268     171.289
  O      608.347     328.109     173.027
  H      608.845     326.065     171.500
  H      608.561     329.200     168.875
  H      608.651     327.504     169.285
  H      609.574     328.674     170.198

 6  7  8  9  10  11  12  13  14  15  25  28  32  33  34  35 0
 6-311+G(2d,p)
 ****
 36  39  40 0
 6-311+G(2d,p)
 ****
 1  2  3  4  5  16  17  18  19  20  21  22  23  24 0
 3-21G
 ****
 26  27  29  30  31  37  38  41  42  43  44  45  46  47 0
 3-21G
 ****
 48 0
 3-21G
 ****


