%nproc=1
%NoSave
%Mem=1900MB
#P OB98/GEN NMR

erre ene a

0 1
  C     -763.665    -159.394    -761.047
  O     -763.778    -158.008    -760.695
  P     -765.233    -157.456    -760.290
  C     -765.176    -155.050    -761.292
  O     -765.144    -155.859    -760.121
  C     -764.639    -153.648    -760.988
  O     -765.289    -153.051    -759.840
  C     -763.153    -153.622    -760.654
  O     -762.356    -153.642    -761.837
  C     -763.024    -152.283    -759.955
  O     -762.970    -151.223    -760.923
  C     -764.339    -152.209    -759.163
  N     -761.941    -151.441    -754.699
  C     -761.817    -150.846    -755.906
  N     -762.473    -151.113    -757.050
  C     -763.358    -152.109    -756.863
  C     -763.602    -152.812    -755.693
  C     -762.845    -152.448    -754.568
  N     -762.989    -153.049    -753.337
  N     -764.570    -153.772    -755.885
  C     -764.923    -153.643    -757.153
  N     -764.215    -152.655    -757.783
  O     -765.395    -157.970    -758.780
  O     -766.338    -157.941    -761.162
  H     -763.680    -151.379    -761.568
  H     -766.337    -158.185    -758.611
  H     -761.083    -150.044    -755.960
  H     -765.681    -154.224    -757.649
  H     -764.746    -151.193    -759.140
  H     -762.121    -152.209    -759.346
  H     -762.885    -154.439    -759.970
  H     -764.834    -153.017    -761.864
  H     -766.208    -154.980    -761.661
  H     -762.419    -152.710    -752.573
  H     -763.668    -153.788    -753.234
  H     -764.600    -155.533    -762.079
  P     -760.859    -154.196    -761.702
  C     -760.177    -152.711    -763.723
  O     -760.195    -154.002    -763.147
  O     -761.067    -155.777    -761.578
  O     -760.092    -153.639    -760.549
  H     -760.347    -156.167    -761.041
  H     -759.442    -152.698    -764.536
  H     -759.893    -151.953    -762.994
  H     -761.159    -152.476    -764.139
  H     -762.648    -159.618    -761.292
  H     -764.288    -159.599    -761.892
  H     -763.975    -159.998    -760.220

 3  4  5  6  7  8  9  10  11  12  22  25  29  30  31  32 0
 6-311+G(2d,p)
 ****
 33  36  37 0
 6-311+G(2d,p)
 ****
 1  2  13  14  15  16  17  18  19  20  21  23  24  26 0
 3-21G
 ****
 27  28  34  35  38  39  40  41  42  43  44  45  46  47  48 0
 3-21G
 ****


