%nproc=1
%NoSave
%Mem=1900MB
#P OB98/GEN NMR

erre ene a

0 1
  C     -541.813     222.894     322.690
  O     -540.936     223.983     322.930
  P     -541.128     225.419     322.253
  C     -539.346     226.505     323.815
  O     -539.770     226.259     322.477
  C     -537.823     226.512     323.971
  O     -537.258     227.530     323.110
  C     -537.439     226.898     325.403
  O     -537.427     225.912     326.421
  C     -536.153     227.701     325.264
  O     -534.984     226.916     325.520
  C     -536.176     228.173     323.808
  N     -533.772     232.626     323.525
  C     -533.258     231.355     323.389
  N     -531.909     231.261     323.363
  N     -533.997     230.274     323.309
  C     -535.328     230.528     323.448
  C     -535.948     231.740     323.576
  C     -535.118     232.928     323.622
  O     -535.531     234.068     323.825
  N     -537.305     231.609     323.767
  C     -537.499     230.307     323.799
  N     -536.319     229.608     323.656
  O     -542.438     226.097     322.473
  O     -541.041     225.038     320.684
  H     -534.210     227.506     325.503
  H     -541.635     225.644     320.205
  H     -533.145     233.408     323.662
  H     -538.451     229.815     323.956
  H     -535.255     227.882     323.296
  H     -536.133     228.517     325.991
  H     -531.314     232.042     323.569
  H     -538.184     227.621     325.744
  H     -531.500     230.330     323.433
  H     -537.385     225.565     323.634
  H     -539.799     225.739     324.453
  H     -539.748     227.472     324.138
  P     -537.807     226.136     327.958
  C     -538.369     223.646     328.026
  O     -537.742     224.716     328.701
  O     -539.370     226.471     327.941
  O     -537.049     227.238     328.640
  H     -539.615     226.952     328.751
  H     -538.546     222.825     328.733
  H     -537.718     223.290     327.220
  H     -539.330     223.953     327.592
  H     -541.485     222.042     323.249
  H     -541.811     222.658     321.646
  H     -542.804     223.160     322.994

 3  4  5  6  7  8  9  10  11  12  23  26  30  31 0
 6-311+G(2d,p)
 ****
 33  35  36  37  38 0
 6-311+G(2d,p)
 ****
 1  2  13  14  15  16  17  18  19  20  21  22  24  25 0
 3-21G
 ****
 27  28  29  32  34  39  40  41  42  43  44  45  46  47  48  49 0
 3-21G
 ****


