%nproc=1
%NoSave
%Mem=1900MB
#P OB98/GEN NMR

erre ene a

0 1
  C       37.057       5.357    -270.176
  O       37.534       5.541    -268.836
  P       36.875       4.635    -267.688
  C       37.126       6.535    -265.917
  O       37.379       5.174    -266.266
  C       38.312       7.105    -265.132
  O       39.442       7.329    -265.995
  C       38.012       8.456    -264.497
  O       37.238       8.300    -263.322
  C       39.412       9.002    -264.245
  O       39.903       8.624    -262.951
  C       40.255       8.346    -265.366
  N       40.741       9.306    -266.342
  C       42.094       9.661    -266.230
  O       42.786       9.180    -265.331
  N       42.610      10.569    -267.121
  C       41.847      11.090    -268.028
  N       42.417      11.984    -268.881
  C       40.409      10.768    -268.163
  C       39.926       9.880    -267.294
  O       37.632       3.232    -267.844
  O       35.393       4.478    -267.818
  H       40.788       9.039    -262.870
  H       37.037       2.502    -267.609
  H       39.807      11.237    -268.929
  H       38.878       9.586    -267.317
  H       41.123       7.829    -264.938
  H       39.428      10.100    -264.282
  H       37.488       9.100    -265.218
  H       38.599       6.379    -264.356
  H       43.403      12.184    -268.756
  H       36.213       6.607    -265.320
  H       41.909      12.461    -269.618
  H       36.949       7.105    -266.836
  P       36.017       9.300    -263.090
  C       36.326       8.875    -260.572
  O       35.415       8.904    -261.654
  O       34.904       8.711    -264.093
  O       36.263      10.754    -263.330
  H       34.130       9.303    -264.115
  H       35.758       8.798    -259.640
  H       36.918       9.789    -260.550
  H       36.978       8.000    -260.662
  H       37.579       6.020    -270.834
  H       36.009       5.569    -270.214
  H       37.228       4.345    -270.480

 3  4  5  6  7  8  9  10  11  12  13  21  23  27  28  29  30  32 0
 6-311+G(2d,p)
 ****
 34  35 0
 6-311+G(2d,p)
 ****
 1  2  14  15  16  17  18  19  20  22  24  25  26 0
 3-21G
 ****
 31  33  36  37  38  39  40  41  42  43  44  45  46 0
 3-21G
 ****


