%nproc=1
%NoSave
%Mem=1900MB
#P OB98/GEN NMR

erre ene a

0 1
  C     -367.361     -49.415     307.984
  O     -367.360     -48.205     308.719
  H     -366.800     -49.261     307.057
  H     -368.386     -49.698     307.730
  H     -366.879     -50.207     308.564
  P     -368.120     -48.226     310.134
  C     -365.855     -48.183     311.388
  O     -367.061     -48.891     311.139
  C     -365.816     -47.673     312.830
  O     -365.982     -48.763     313.754
  C     -364.517     -46.989     313.221
  O     -364.487     -45.644     312.765
  C     -364.600     -47.067     314.742
  O     -365.468     -46.029     315.235
  C     -365.251     -48.445     314.973
  N     -363.595     -51.743     318.548
  C     -364.414     -50.674     318.623
  N     -364.774     -49.815     317.645
  C     -364.195     -50.154     316.477
  C     -363.333     -51.213     316.247
  C     -363.039     -52.044     317.345
  N     -362.204     -53.140     317.262
  N     -362.933     -51.246     314.924
  C     -363.586     -50.244     314.354
  N     -364.333     -49.536     315.261
  O     -369.486     -48.821     310.126
  O     -368.053     -46.677     310.542
  H     -366.306     -46.082     314.731
  H     -367.194     -46.295     310.289
  H     -364.846     -50.478     319.602
  H     -363.560     -50.012     313.299
  H     -365.976     -48.419     315.795
  H     -363.628     -46.924     315.221
  H     -363.641     -47.562     312.882
  H     -366.674     -46.998     312.971
  H     -365.757     -47.341     310.694
  H     -361.915     -53.569     318.125
  H     -361.699     -53.284     316.402
  H     -365.021     -48.873     311.209
  P     -363.096     -44.910     312.459
  C     -363.384     -45.211     309.919
  O     -362.570     -45.491     311.053
  O     -362.098     -44.964     313.565
  O     -363.505     -43.408     312.101
  H     -362.853     -42.786     312.466
  H     -362.940     -45.643     309.046
  H     -363.465     -44.152     309.791
  H     -364.358     -45.628     310.067

 6  7  8  9  10  11  12  13  14  15  25  28  32  33  34  35 0
 6-311+G(2d,p)
 ****
 36  39  40 0
 6-311+G(2d,p)
 ****
 1  2  3  4  5  16  17  18  19  20  21  22  23  24 0
 3-21G
 ****
 26  27  29  30  31  37  38  41  42  43  44  45  46  47 0
 3-21G
 ****
 48 0
 3-21G
 ****


