%nproc=1
%NoSave
%Mem=1900MB
#P OB98/GEN NMR

erre ene a

0 1
  C       69.759      27.131     -14.731
  O       70.537      26.629     -15.797
  H       68.866      26.508     -14.627
  H       69.447      28.158     -14.934
  H       70.322      27.090     -13.794
  P       71.877      27.406     -16.204
  C       73.023      25.094     -16.245
  O       72.835      26.334     -16.918
  C       73.300      23.979     -17.260
  O       72.089      23.775     -18.030
  C       74.434      24.336     -18.231
  O       75.453      23.341     -18.292
  C       73.698      24.673     -19.522
  O       74.453      24.479     -20.700
  C       72.428      23.819     -19.429
  N       71.309      24.335     -20.214
  C       71.244      23.962     -21.553
  O       72.038      23.214     -22.119
  N       70.190      24.481     -22.260
  C       69.231      25.317     -21.776
  O       68.307      25.745     -22.457
  C       69.367      25.694     -20.361
  C       70.385      25.195     -19.656
  O       72.525      28.192     -15.115
  O       71.425      28.347     -17.418
  H       74.989      23.669     -20.580
  H       71.317      29.262     -17.098
  H       70.126      24.208     -23.228
  H       68.628      26.365     -19.946
  H       70.514      25.450     -18.609
  H       72.626      22.801     -19.763
  H       73.419      25.733     -19.491
  H       74.974      25.227     -17.889
  H       73.507      23.050     -16.718
  H       72.113      24.875     -15.680
  H       73.865      25.177     -15.549
  P       76.996      23.600     -17.981
  C       77.654      21.229     -17.074
  O       77.770      22.205     -18.099
  O       77.280      24.430     -16.775
  O       77.501      24.426     -19.272
  H       78.198      25.036     -18.956
  H       78.239      20.371     -17.331
  H       76.628      20.943     -16.969
  H       78.007      21.638     -16.150

 6  7  8  9  10  11  12  13  14  15  16  26  31  32  33  34  35 0
 6-311+G(2d,p)
 ****
 36  37 0
 6-311+G(2d,p)
 ****
 1  2  3  4  5  17  18  19  20  21  22  23  24  25 0
 3-21G
 ****
 27  28  29  30  38  39  40  41  42  43  44  45 0
 3-21G
 ****


