%nproc=1
%NoSave
%Mem=1900MB
#P OB98/GEN NMR

erre ene a

0 1
  C     -124.101     170.233     171.518
  O     -124.104     168.848     171.835
  P     -123.874     168.436     173.372
  C     -126.070     167.057     173.508
  O     -124.648     167.045     173.565
  C     -126.583     165.878     172.685
  O     -126.199     166.032     171.305
  C     -126.041     164.524     173.115
  O     -126.747     163.989     174.222
  C     -126.309     163.698     171.867
  O     -127.694     163.307     171.828
  C     -126.011     164.703     170.748
  N     -122.982     162.062     167.587
  C     -124.269     161.888     167.955
  N     -125.003     162.628     168.812
  C     -124.263     163.618     169.338
  C     -122.930     163.896     169.086
  C     -122.279     163.072     168.154
  N     -120.976     163.270     167.757
  N     -122.517     164.990     169.815
  C     -123.581     165.373     170.486
  N     -124.664     164.582     170.224
  O     -124.790     169.483     174.165
  O     -122.456     168.470     173.828
  H     -127.886     163.039     170.909
  H     -124.468     169.580     175.081
  H     -124.780     161.047     167.494
  H     -123.617     166.217     171.162
  H     -126.703     164.604     169.905
  H     -125.716     162.779     171.830
  H     -124.961     164.568     173.300
  H     -127.680     165.887     172.733
  H     -126.401     167.989     173.042
  H     -120.643     162.757     166.957
  H     -120.524     164.137     168.028
  H     -126.469     167.013     174.526
  P     -126.088     162.721     174.957
  C     -127.320     163.128     177.207
  O     -127.143     162.290     176.081
  O     -124.881     163.367     175.782
  O     -125.633     161.647     174.027
  H     -124.182     162.704     175.939
  H     -128.262     162.863     177.696
  H     -127.362     164.180     176.915
  H     -126.500     162.974     177.915
  H     -124.264     170.359     170.468
  H     -123.156     170.658     171.786
  H     -124.880     170.725     172.062

 3  4  5  6  7  8  9  10  11  12  22  25  29  30  31  32 0
 6-311+G(2d,p)
 ****
 33  36  37 0
 6-311+G(2d,p)
 ****
 1  2  13  14  15  16  17  18  19  20  21  23  24  26 0
 3-21G
 ****
 27  28  34  35  38  39  40  41  42  43  44  45  46  47  48 0
 3-21G
 ****


