%nproc=1
%NoSave
%Mem=1900MB
#P OB98/GEN NMR

erre ene a

0 1
  C     1151.264    -332.627    -285.090
  O     1150.429    -332.099    -284.067
  P     1150.558    -332.647    -282.572
  C     1150.873    -330.143    -281.934
  O     1150.321    -331.398    -281.592
  C     1150.874    -329.194    -280.715
  O     1149.500    -328.915    -280.372
  C     1151.505    -329.775    -279.457
  O     1151.823    -328.693    -278.567
  C     1150.368    -330.589    -278.872
  O     1150.542    -330.856    -277.492
  C     1149.127    -329.725    -279.231
  N     1147.962    -330.569    -279.566
  C     1147.413    -331.317    -278.526
  O     1147.804    -331.238    -277.358
  N     1146.440    -332.213    -278.885
  C     1146.026    -332.459    -280.160
  O     1145.408    -333.471    -280.489
  C     1146.467    -331.494    -281.175
  C     1147.425    -330.616    -280.840
  O     1152.128    -332.950    -282.430
  O     1149.737    -333.849    -282.266
  H     1149.823    -331.472    -277.221
  H     1152.300    -333.894    -282.600
  H     1146.155    -332.854    -278.154
  H     1146.046    -331.566    -282.167
  H     1147.809    -329.925    -281.581
  H     1148.842    -329.064    -278.403
  H     1150.315    -331.556    -279.406
  H     1152.397    -330.387    -279.633
  H     1151.361    -328.252    -280.989
  H     1150.306    -329.707    -282.761
  H     1151.903    -330.269    -282.278
  P     1153.251    -328.724    -277.830
  C     1154.434    -326.504    -278.328
  O     1153.582    -327.198    -277.448
  O     1154.334    -329.460    -278.537
  O     1152.901    -329.378    -276.406
  H     1153.720    -329.701    -275.998
  H     1154.180    -325.429    -278.286
  H     1154.318    -326.837    -279.359
  H     1155.466    -326.631    -278.013
  H     1151.039    -332.145    -286.018
  H     1151.092    -333.679    -285.183
  H     1152.289    -332.454    -284.838

 3  4  5  6  7  8  9  10  11  12  13  23  28  29  30  31  32 0
 6-311+G(2d,p)
 ****
 33  34 0
 6-311+G(2d,p)
 ****
 1  2  14  15  16  17  18  19  20  21  22  24  25  26  27 0
 3-21G
 ****
 35  36  37  38  39  40  41  42  43  44  45 0
 3-21G
 ****


