%nproc=1
%NoSave
%Mem=1900MB
#P OB98/GEN NMR

erre ene a

0 1
  C      671.304      32.110    1039.758
  O      671.258      32.526    1041.110
  H      670.373      32.421    1039.267
  H      671.389      31.027    1039.693
  H      672.138      32.594    1039.242
  P      672.458      32.105    1042.079
  C      673.120      34.456    1042.908
  O      673.482      33.335    1042.114
  C      674.333      35.377    1043.136
  O      675.311      34.668    1043.938
  C      675.034      35.800    1041.833
  O      675.609      37.102    1042.058
  C      676.129      34.750    1041.721
  O      677.102      35.122    1040.780
  C      676.543      34.628    1043.188
  N      677.316      33.414    1043.455
  C      678.632      33.413    1042.998
  O      679.086      34.394    1042.395
  N      679.398      32.296    1043.196
  C      678.872      31.248    1043.758
  N      679.674      30.160    1043.920
  C      677.464      31.190    1044.202
  C      676.740      32.308    1044.025
  O      673.087      30.780    1041.788
  O      671.803      32.129    1043.539
  H      676.801      34.909    1039.868
  H      671.641      31.216    1043.848
  H      677.055      30.283    1044.636
  H      675.702      32.362    1044.311
  H      677.147      35.499    1043.499
  H      675.696      33.795    1041.365
  H      674.363      35.843    1040.971
  H      674.015      36.254    1043.717
  H      680.636      30.242    1043.592
  H      672.752      34.087    1043.871
  H      679.370      29.292    1044.316
  H      672.313      35.025    1042.424
  P      675.038      38.435    1041.405
  C      674.695      39.698    1043.637
  O      674.083      39.181    1042.464
  O      674.404      38.240    1040.055
  O      676.290      39.431    1041.297
  H      676.161      40.003    1040.521
  H      673.953      40.165    1044.250
  H      675.437      40.419    1043.364
  H      675.156      38.900    1044.180

 6  7  8  9  10  11  12  13  14  15  16  26  30  31  32  33  35 0
 6-311+G(2d,p)
 ****
 37  38 0
 6-311+G(2d,p)
 ****
 1  2  3  4  5  17  18  19  20  21  22  23  24  25 0
 3-21G
 ****
 27  28  29  34  36  39  40  41  42  43  44  45  46 0
 3-21G
 ****


