%nproc=1
%NoSave
%Mem=1900MB
#P OB98/GEN NMR

erre ene a

0 1
  C     -469.326    -943.935    -268.324
  O     -470.341    -943.924    -267.349
  H     -468.571    -944.664    -268.034
  H     -468.861    -942.950    -268.388
  H     -469.725    -944.218    -269.305
  P     -471.718    -943.159    -267.658
  C     -470.619    -940.917    -267.022
  O     -471.320    -941.639    -268.014
  C     -470.384    -939.466    -267.469
  O     -471.642    -938.927    -267.974
  C     -469.900    -938.531    -266.342
  O     -469.076    -937.534    -266.941
  C     -471.210    -937.927    -265.865
  O     -470.987    -936.750    -265.111
  C     -471.949    -937.753    -267.193
  N     -473.388    -937.557    -267.019
  C     -474.165    -937.559    -268.174
  O     -473.689    -937.685    -269.304
  N     -475.500    -937.352    -267.997
  C     -476.121    -937.119    -266.803
  O     -477.325    -936.905    -266.709
  C     -475.243    -937.074    -265.620
  C     -473.930    -937.312    -265.781
  O     -472.781    -943.301    -266.627
  O     -472.178    -943.746    -269.081
  H     -471.847    -936.359    -264.828
  H     -473.149    -943.739    -269.145
  H     -476.081    -937.365    -268.820
  H     -475.700    -936.867    -264.666
  H     -473.267    -937.291    -264.931
  H     -471.560    -936.875    -267.744
  H     -471.753    -938.632    -265.220
  H     -469.360    -939.056    -265.552
  H     -469.685    -939.467    -268.311
  H     -469.652    -941.409    -266.859
  H     -471.193    -940.928    -266.082
  P     -467.491    -937.714    -267.103
  C     -466.666    -936.823    -264.830
  O     -466.851    -937.967    -265.648
  O     -466.822    -936.633    -267.889
  O     -467.323    -939.134    -267.840
  H     -466.490    -939.133    -268.359
  H     -466.237    -937.118    -263.895
  H     -467.611    -936.353    -264.656
  H     -466.011    -936.135    -265.322

 6  7  8  9  10  11  12  13  14  15  16  26  31  32  33  34  35 0
 6-311+G(2d,p)
 ****
 36  37 0
 6-311+G(2d,p)
 ****
 1  2  3  4  5  17  18  19  20  21  22  23  24  25 0
 3-21G
 ****
 27  28  29  30  38  39  40  41  42  43  44  45 0
 3-21G
 ****


