%nproc=1
%NoSave
%Mem=1900MB
#P OB98/GEN NMR

erre ene a

0 1
  C     -137.047     913.876    -213.535
  O     -138.002     914.312    -214.484
  P     -138.093     915.867    -214.866
  C     -140.674     915.985    -214.819
  O     -139.489     916.110    -215.617
  C     -141.875     916.566    -215.553
  O     -141.671     917.969    -215.837
  C     -142.146     915.913    -216.908
  O     -142.758     914.652    -216.741
  C     -143.029     916.964    -217.581
  O     -144.389     916.847    -217.134
  C     -142.403     918.277    -217.060
  N     -140.044     922.632    -218.250
  C     -140.981     922.343    -217.322
  N     -141.589     921.158    -217.095
  C     -141.161     920.230    -217.964
  C     -140.233     920.385    -218.989
  C     -139.638     921.651    -219.113
  N     -138.645     921.953    -220.015
  N     -140.078     919.195    -219.685
  C     -140.893     918.350    -219.098
  N     -141.521     918.911    -218.010
  O     -136.893     916.432    -215.553
  O     -138.324     916.590    -213.453
  H     -144.745     916.007    -217.479
  H     -137.583     917.215    -213.277
  H     -141.258     923.160    -216.669
  H     -141.066     917.330    -219.410
  H     -143.166     919.008    -216.775
  H     -143.022     916.881    -218.667
  H     -141.212     915.812    -217.474
  H     -142.749     916.484    -214.894
  H     -140.502     916.542    -213.886
  H     -138.184     922.848    -219.909
  H     -138.129     921.183    -220.429
  H     -140.843     914.930    -214.587
  P     -142.242     913.388    -217.579
  C     -144.630     912.589    -218.113
  O     -143.396     912.267    -217.499
  O     -140.869     912.909    -217.249
  O     -142.341     913.889    -219.107
  H     -141.636     913.463    -219.624
  H     -145.189     913.262    -217.456
  H     -145.203     911.685    -218.259
  H     -144.470     913.072    -219.084
  H     -137.130     912.817    -213.406
  H     -137.225     914.364    -212.600
  H     -136.064     914.117    -213.882

 3  4  5  6  7  8  9  10  11  12  22  25  29  30  31  32 0
 6-311+G(2d,p)
 ****
 33  36  37 0
 6-311+G(2d,p)
 ****
 1  2  13  14  15  16  17  18  19  20  21  23  24  26 0
 3-21G
 ****
 27  28  34  35  38  39  40  41  42  43  44  45  46  47  48 0
 3-21G
 ****


