%nproc=1
%NoSave
%Mem=1900MB
#P OB98/GEN NMR

erre ene a

0 1
  C      -52.763    -172.447    -252.654
  O      -52.847    -172.801    -254.019
  H      -53.224    -171.464    -252.514
  H      -51.716    -172.391    -252.344
  H      -53.294    -173.176    -252.035
  P      -52.331    -174.263    -254.427
  C      -49.861    -173.531    -254.807
  O      -50.770    -174.313    -254.046
  C      -48.537    -174.286    -254.966
  O      -48.051    -174.649    -253.644
  C      -48.671    -175.586    -255.780
  O      -47.491    -175.763    -256.567
  C      -48.744    -176.657    -254.706
  O      -48.346    -177.944    -255.160
  C      -47.808    -176.074    -253.642
  N      -48.041    -176.635    -252.317
  C      -47.221    -177.686    -251.907
  O      -46.270    -178.123    -252.553
  N      -47.538    -178.249    -250.693
  C      -48.575    -177.887    -249.881
  O      -48.824    -178.441    -248.817
  C      -49.412    -176.777    -250.371
  C      -49.112    -176.214    -251.549
  O      -52.315    -174.219    -256.029
  O      -53.130    -175.402    -253.892
  H      -53.171    -174.516    -256.385
  H      -47.421    -177.882    -255.477
  H      -46.953    -179.009    -250.383
  H      -50.249    -176.468    -249.760
  H      -49.718    -175.406    -251.941
  H      -46.759    -176.226    -253.928
  H      -49.766    -176.736    -254.321
  H      -49.552    -175.592    -256.423
  H      -47.793    -173.616    -255.413
  H      -49.677    -172.587    -254.286
  H      -50.297    -173.322    -255.789
  P      -47.615    -175.508    -258.153
  C      -48.493    -177.964    -258.395
  O      -48.682    -176.590    -258.684
  O      -46.207    -176.054    -258.670
  O      -47.916    -174.087    -258.493
  H      -45.886    -176.833    -258.187
  H      -49.293    -178.532    -258.823
  H      -48.482    -178.107    -257.335
  H      -47.562    -178.291    -258.809

 6  7  8  9  10  11  12  13  14  15  16  27  31  32  33  34  35 0
 6-311+G(2d,p)
 ****
 36  37 0
 6-311+G(2d,p)
 ****
 1  2  3  4  5  17  18  19  20  21  22  23  24  25 0
 3-21G
 ****
 26  28  29  30  38  39  40  41  42  43  44  45 0
 3-21G
 ****


