%nproc=1
%NoSave
%Mem=1900MB
#P OB98/GEN NMR

erre ene a

0 1
  C     -272.920    -256.021     461.660
  O     -271.545    -255.746     461.842
  H     -273.470    -255.076     461.658
  H     -273.287    -256.641     462.482
  H     -273.086    -256.528     460.705
  P     -270.536    -256.987     461.694
  C     -270.185    -258.756     459.787
  O     -270.685    -257.491     460.181
  C     -269.917    -258.784     458.280
  O     -271.170    -258.573     457.581
  C     -268.934    -257.711     457.808
  O     -268.151    -258.251     456.743
  C     -269.841    -256.619     457.265
  O     -269.170    -255.783     456.326
  C     -270.998    -257.452     456.690
  N     -272.229    -256.674     456.557
  C     -272.678    -256.423     455.258
  O     -272.035    -256.837     454.289
  N     -273.813    -255.676     455.076
  C     -274.414    -255.167     456.104
  N     -275.521    -254.413     455.860
  C     -273.954    -255.367     457.493
  C     -272.872    -256.130     457.645
  O     -271.282    -258.118     462.548
  O     -269.139    -256.703     462.138
  H     -269.723    -254.987     456.166
  H     -272.236    -258.167     462.372
  H     -274.483    -254.911     458.316
  H     -272.469    -256.338     458.630
  H     -270.733    -257.849     455.703
  H     -270.198    -255.985     458.084
  H     -268.277    -257.360     458.609
  H     -269.566    -259.787     458.008
  H     -275.790    -254.281     454.892
  H     -270.899    -259.545     460.042
  H     -276.035    -253.921     456.575
  H     -269.260    -258.944     460.342
  P     -266.580    -258.465     456.945
  C     -265.580    -259.245     459.201
  O     -266.336    -259.602     458.049
  O     -265.775    -257.225     457.123
  O     -266.147    -259.212     455.587
  H     -265.290    -258.840     455.301
  H     -265.495    -260.092     459.849
  H     -266.073    -258.448     459.718
  H     -264.604    -258.926     458.902

 6  7  8  9  10  11  12  13  14  15  16  26  30  31  32  33  35 0
 6-311+G(2d,p)
 ****
 37  38 0
 6-311+G(2d,p)
 ****
 1  2  3  4  5  17  18  19  20  21  22  23  24  25 0
 3-21G
 ****
 27  28  29  34  36  39  40  41  42  43  44  45  46 0
 3-21G
 ****


