%nproc=1
%NoSave
%Mem=1900MB
#P OB98/GEN NMR

erre ene a

0 1
  C      670.035    -110.822     696.253
  O      669.527    -109.503     696.236
  P      669.963    -108.444     697.354
  C      669.057    -106.785     695.595
  O      669.184    -107.091     696.982
  C      667.891    -105.825     695.352
  O      668.054    -104.624     696.129
  C      667.755    -105.367     693.905
  O      667.169    -106.391     693.112
  C      666.903    -104.120     694.070
  O      665.503    -104.454     694.177
  C      667.422    -103.536     695.402
  N      668.332    -102.422     695.202
  C      667.781    -101.282     694.605
  O      666.595    -101.278     694.265
  N      668.587    -100.194     694.372
  C      669.849    -100.253     694.680
  N      670.596     -99.154     694.419
  C      670.481    -101.450     695.279
  C      669.675    -102.487     695.501
  O      671.440    -108.297     697.553
  O      669.188    -108.957     698.663
  H      665.043    -103.626     694.412
  H      669.615    -109.761     699.041
  H      671.536    -101.452     695.510
  H      670.057    -103.403     695.930
  H      666.587    -103.196     696.025
  H      667.004    -103.435     693.217
  H      668.737    -105.088     693.508
  H      666.968    -106.322     695.677
  H      670.129     -98.363     693.981
  H      668.881    -107.711     695.051
  H      671.596     -99.099     694.590
  H      669.995    -106.352     695.235
  P      667.991    -107.035     691.908
  C      666.104    -108.775     691.976
  O      667.027    -108.078     691.157
  O      669.343    -107.558     692.259
  O      668.107    -105.840     690.843
  H      669.006    -105.812     690.498
  H      665.309    -109.182     691.345
  H      665.659    -108.107     692.723
  H      666.611    -109.598     692.483
  H      669.628    -111.372     695.430
  H      669.760    -111.298     697.171
  H      671.101    -110.795     696.171

 3  4  5  6  7  8  9  10  11  12  13  23  27  28  29  30  32 0
 6-311+G(2d,p)
 ****
 34  35 0
 6-311+G(2d,p)
 ****
 1  2  14  15  16  17  18  19  20  21  22  24  25  26 0
 3-21G
 ****
 31  33  36  37  38  39  40  41  42  43  44  45  46 0
 3-21G
 ****


