%nproc=1
%NoSave
%Mem=1900MB
#P OB98/GEN NMR

erre ene a

0 1
  C     -512.533    -300.444    -521.835
  O     -512.128    -300.283    -520.491
  H     -513.374    -301.141    -521.869
  H     -511.711    -300.848    -522.433
  H     -512.854    -299.483    -522.248
  P     -510.858    -299.336    -520.222
  C     -512.340    -297.843    -518.702
  O     -511.133    -298.581    -518.835
  C     -512.144    -296.719    -517.685
  O     -512.006    -297.275    -516.362
  C     -510.888    -295.889    -517.910
  O     -511.053    -294.939    -518.953
  C     -510.719    -295.246    -516.549
  O     -511.530    -294.063    -516.417
  C     -511.201    -296.358    -515.591
  N     -510.089    -297.024    -514.922
  C     -509.482    -296.305    -513.892
  O     -509.845    -295.173    -513.558
  N     -508.421    -296.912    -513.286
  C     -507.888    -298.119    -513.620
  O     -506.885    -298.579    -513.085
  C     -508.576    -298.842    -514.703
  C     -509.627    -298.268    -515.298
  O     -511.027    -298.186    -521.327
  O     -509.532    -300.016    -520.317
  H     -510.408    -298.341    -522.061
  H     -511.186    -293.420    -517.071
  H     -507.960    -296.399    -512.550
  H     -508.184    -299.810    -514.986
  H     -510.134    -298.770    -516.113
  H     -511.861    -295.938    -514.819
  H     -509.689    -294.938    -516.368
  H     -510.029    -296.544    -518.102
  H     -513.035    -296.081    -517.696
  H     -513.135    -298.509    -518.349
  H     -512.626    -297.438    -519.680
  P     -509.742    -294.358    -519.663
  C     -511.093    -293.447    -521.737
  O     -510.243    -293.172    -520.634
  O     -509.371    -295.544    -520.669
  O     -508.655    -293.965    -518.718
  H     -510.153    -295.990    -521.034
  H     -511.312    -292.536    -522.254
  H     -512.004    -293.885    -521.385
  H     -510.604    -294.127    -522.403

 6  7  8  9  10  11  12  13  14  15  16  27  31  32  33  34  35 0
 6-311+G(2d,p)
 ****
 36  37 0
 6-311+G(2d,p)
 ****
 1  2  3  4  5  17  18  19  20  21  22  23  24  25 0
 3-21G
 ****
 26  28  29  30  38  39  40  41  42  43  44  45 0
 3-21G
 ****


