%nproc=1
%NoSave
%Mem=1900MB
#P OB98/GEN NMR

erre ene a

0 1
  C      -91.117     -33.406      15.216
  O      -89.934     -32.634      15.202
  H      -91.336     -33.735      14.197
  H      -91.953     -32.804      15.579
  H      -90.991     -34.287      15.852
  P      -89.366     -32.144      16.619
  C      -90.283     -30.656      18.548
  O      -90.490     -31.185      17.247
  C      -91.631     -30.431      19.236
  O      -92.364     -29.417      18.496
  C      -92.506     -31.688      19.282
  O      -93.229     -31.708      20.517
  C      -93.468     -31.485      18.125
  O      -94.683     -32.211      18.256
  C      -93.658     -29.965      18.168
  N      -94.143     -29.425      16.900
  C      -95.515     -29.441      16.679
  O      -96.353     -29.809      17.502
  N      -95.921     -29.011      15.442
  C      -95.111     -28.600      14.425
  O      -95.533     -28.248      13.331
  C      -93.669     -28.613      14.715
  C      -93.258     -29.019      15.918
  O      -88.201     -31.123      16.217
  O      -88.893     -33.223      17.533
  H      -87.348     -31.593      16.135
  H      -95.267     -31.960      17.511
  H      -96.915     -29.015      15.266
  H      -92.993     -28.302      13.929
  H      -92.201     -29.054      16.159
  H      -94.346     -29.688      18.975
  H      -92.993     -31.789      17.185
  H      -91.932     -32.610      19.176
  H      -91.455     -30.033      20.242
  H      -89.755     -29.701      18.467
  H      -89.673     -31.354      19.130
  P      -92.898     -32.895      21.547
  C      -93.765     -35.344      21.832
  O      -93.856     -34.116      21.133
  O      -93.535     -32.328      22.897
  O      -91.442     -33.217      21.616
  H      -94.361     -31.834      22.759
  H      -94.471     -36.038      21.426
  H      -93.979     -35.182      22.868
  H      -92.776     -35.740      21.730

 6  7  8  9  10  11  12  13  14  15  16  27  31  32  33  34  35 0
 6-311+G(2d,p)
 ****
 36  37 0
 6-311+G(2d,p)
 ****
 1  2  3  4  5  17  18  19  20  21  22  23  24  25 0
 3-21G
 ****
 26  28  29  30  38  39  40  41  42  43  44  45 0
 3-21G
 ****


