%nproc=1
%NoSave
%Mem=1900MB
#P OB98/GEN NMR

erre ene a

0 1
  C      214.808    -221.389     193.433
  O      215.449    -222.638     193.151
  P      215.360    -223.210     191.669
  C      217.879    -223.273     191.105
  O      216.618    -222.674     190.820
  C      219.019    -222.476     190.451
  O      218.896    -221.072     190.848
  C      220.436    -222.899     190.863
  O      221.076    -223.919     190.107
  C      221.222    -221.608     190.617
  O      221.582    -221.518     189.215
  C      220.223    -220.510     190.962
  N      222.037    -216.524     193.626
  C      221.977    -216.770     192.307
  N      221.486    -217.858     191.669
  C      220.997    -218.744     192.552
  C      220.982    -218.622     193.944
  C      221.540    -217.447     194.477
  N      221.604    -217.195     195.840
  N      220.404    -219.733     194.520
  C      220.093    -220.527     193.505
  N      220.413    -219.961     192.297
  O      214.035    -223.086     190.985
  O      215.734    -224.768     191.874
  H      220.746    -221.623     188.720
  H      215.185    -225.303     191.262
  H      222.403    -215.994     191.646
  H      219.632    -221.494     193.598
  H      220.280    -219.667     190.271
  H      222.157    -221.580     191.186
  H      220.471    -223.153     191.936
  H      218.920    -222.517     189.358
  H      217.897    -224.300     190.735
  H      222.062    -216.357     196.140
  H      221.281    -217.905     196.482
  H      217.978    -223.323     192.198
  P      220.927    -225.475     190.496
  C      220.130    -226.184     188.106
  O      219.839    -226.070     189.486
  O      220.642    -225.733     191.937
  O      222.295    -226.094     189.950
  H      222.385    -226.106     188.990
  H      219.351    -226.805     187.634
  H      221.104    -226.667     187.957
  H      220.129    -225.195     187.632
  H      214.954    -221.138     194.463
  H      213.760    -221.472     193.231
  H      215.230    -220.624     192.816

 3  4  5  6  7  8  9  10  11  12  22  25  29  30  31  32 0
 6-311+G(2d,p)
 ****
 33  36  37 0
 6-311+G(2d,p)
 ****
 1  2  13  14  15  16  17  18  19  20  21  23  24  26 0
 3-21G
 ****
 27  28  34  35  38  39  40  41  42  43  44  45  46  47  48 0
 3-21G
 ****


