%nproc=1
%NoSave
%Mem=1900MB
#P OB98/GEN NMR

erre ene a

0 1
  C      -78.821       0.763     -63.125
  O      -77.517       1.172     -63.482
  H      -79.237       0.173     -63.945
  H      -79.462       1.633     -62.961
  H      -78.797       0.142     -62.226
  P      -76.682       2.062     -62.440
  C      -76.628       4.441     -63.465
  O      -77.301       3.538     -62.602
  C      -77.199       4.347     -64.876
  O      -78.597       4.709     -64.901
  C      -76.547       5.275     -65.895
  O      -75.252       4.863     -66.298
  C      -77.560       5.180     -67.021
  O      -77.406       3.924     -67.706
  C      -78.887       5.229     -66.229
  N      -79.441       6.579     -66.142
  C      -80.091       7.065     -67.282
  O      -80.172       6.379     -68.299
  N      -80.608       8.338     -67.258
  C      -80.467       9.070     -66.197
  N      -80.993      10.326     -66.230
  C      -79.772       8.606     -64.981
  C      -79.292       7.366     -65.020
  O      -75.194       1.974     -62.548
  O      -77.245       1.634     -61.005
  H      -76.475       3.868     -67.988
  H      -76.752       2.149     -60.321
  H      -79.656       9.266     -64.134
  H      -78.762       6.955     -64.167
  H      -79.636       4.567     -66.680
  H      -77.452       5.970     -67.766
  H      -76.531       6.308     -65.529
  H      -77.133       3.297     -65.188
  H      -81.463      10.617     -67.077
  H      -75.562       4.192     -63.455
  H      -80.864      10.991     -65.479
  H      -76.757       5.467     -63.108
  P      -74.538       5.729     -67.449
  C      -74.196       4.475     -69.714
  O      -75.083       5.158     -68.842
  O      -73.022       5.231     -67.387
  O      -74.665       7.212     -67.300
  H      -72.472       5.857     -66.876
  H      -74.726       4.165     -70.591
  H      -73.797       3.616     -69.216
  H      -73.396       5.129     -69.993

 6  7  8  9  10  11  12  13  14  15  16  26  30  31  32  33  35 0
 6-311+G(2d,p)
 ****
 37  38 0
 6-311+G(2d,p)
 ****
 1  2  3  4  5  17  18  19  20  21  22  23  24  25 0
 3-21G
 ****
 27  28  29  34  36  39  40  41  42  43  44  45  46 0
 3-21G
 ****


