%nproc=1
%NoSave
%Mem=1900MB
#P OB98/GEN NMR

erre ene a

0 1
  C     -272.603     -56.152     359.380
  O     -273.053     -56.068     360.722
  P     -274.562     -55.647     361.065
  C     -275.029     -57.638     362.626
  O     -274.829     -56.230     362.536
  C     -275.038     -58.075     364.085
  O     -273.666     -58.243     364.520
  C     -275.651     -57.085     365.076
  O     -277.067     -57.165     365.189
  C     -275.015     -57.554     366.377
  O     -275.701     -58.725     366.861
  C     -273.596     -57.918     365.931
  N     -271.152     -55.087     369.422
  C     -272.009     -56.125     369.539
  N     -272.633     -56.814     368.561
  C     -272.260     -56.364     367.354
  C     -271.395     -55.319     367.075
  C     -270.823     -54.664     368.181
  N     -269.931     -53.619     368.057
  N     -271.273     -55.134     365.709
  C     -272.043     -56.061     365.181
  N     -272.653     -56.831     366.130
  O     -275.559     -56.016     360.026
  O     -274.482     -54.069     361.319
  H     -276.636     -58.470     366.991
  H     -275.374     -53.677     361.271
  H     -272.230     -56.443     370.553
  H     -272.190     -56.205     364.119
  H     -273.207     -58.804     366.448
  H     -275.066     -56.804     367.171
  H     -275.327     -56.057     364.865
  H     -275.534     -59.049     364.152
  H     -274.200     -58.135     362.103
  H     -269.475     -53.297     368.897
  H     -269.562     -53.414     367.138
  H     -275.961     -57.909     362.122
  P     -277.908     -55.855     364.782
  C     -280.018     -56.921     363.662
  O     -279.444     -56.311     364.796
  O     -277.449     -55.186     363.533
  O     -277.784     -54.934     366.086
  H     -278.232     -55.273     366.877
  H     -281.013     -57.295     363.927
  H     -279.410     -57.761     363.318
  H     -280.128     -56.188     362.856
  H     -271.574     -56.446     359.367
  H     -272.707     -55.197     358.909
  H     -273.188     -56.876     358.852

 3  4  5  6  7  8  9  10  11  12  22  25  29  30  31  32 0
 6-311+G(2d,p)
 ****
 33  36  37 0
 6-311+G(2d,p)
 ****
 1  2  13  14  15  16  17  18  19  20  21  23  24  26 0
 3-21G
 ****
 27  28  34  35  38  39  40  41  42  43  44  45  46  47  48 0
 3-21G
 ****


