%nproc=1
%NoSave
%Mem=1900MB
#P OB98/GEN NMR

erre ene a

0 1
  C        9.804     662.513     464.860
  O       10.140     662.293     466.214
  H       10.250     661.719     464.256
  H       10.210     663.470     464.527
  H        8.722     662.497     464.712
  P        9.384     663.139     467.346
  C        8.802     661.273     469.032
  O        9.650     662.377     468.734
  C        9.416     660.392     470.129
  O       10.445     659.552     469.531
  C       10.077     661.190     471.266
  O        9.943     660.414     472.462
  C       11.524     661.224     470.816
  O       12.390     661.553     471.881
  C       11.671     659.816     470.228
  N       12.841     659.694     469.356
  C       13.489     658.461     469.349
  O       13.144     657.514     470.056
  N       14.587     658.368     468.534
  C       15.117     659.380     467.787
  O       16.124     659.252     467.104
  C       14.419     660.667     467.871
  C       13.329     660.771     468.636
  O        7.950     663.458     467.074
  O       10.266     664.465     467.505
  H       12.310     660.887     472.597
  H        9.703     665.214     467.774
  H       15.063     657.481     468.512
  H       14.820     661.500     467.302
  H       12.787     661.707     468.713
  H       11.779     659.069     471.030
  H       11.671     661.977     470.035
  H        9.646     662.185     471.404
  H        8.637     659.724     470.513
  H        8.678     660.688     468.113
  H        7.823     661.640     469.355
  P        8.810     660.717     473.552
  C        7.708     658.385     473.676
  O        8.492     659.358     474.357
  O        7.595     661.397     473.003
  O        9.524     661.637     474.649
  H        8.863     662.214     475.074
  H        7.566     657.534     474.309
  H        8.212     658.084     472.781
  H        6.757     658.805     473.425

 6  7  8  9  10  11  12  13  14  15  16  26  31  32  33  34  35 0
 6-311+G(2d,p)
 ****
 36  37 0
 6-311+G(2d,p)
 ****
 1  2  3  4  5  17  18  19  20  21  22  23  24  25 0
 3-21G
 ****
 27  28  29  30  38  39  40  41  42  43  44  45 0
 3-21G
 ****


