%nproc=1
%NoSave
%Mem=1900MB
#P OB98/GEN NMR

erre ene a

0 1
  C      330.096    -935.876     364.198
  O      330.819    -936.905     363.551
  P      330.755    -937.044     361.955
  C      333.233    -936.380     361.721
  O      331.890    -936.084     361.340
  C      333.974    -937.035     360.555
  O      334.202    -936.070     359.501
  C      335.354    -937.559     360.916
  O      335.255    -938.779     361.625
  C      336.006    -937.677     359.541
  O      335.604    -938.897     358.893
  C      335.411    -936.456     358.811
  N      339.317    -934.411     356.266
  C      338.732    -935.622     356.171
  N      337.711    -936.109     356.915
  C      337.334    -935.214     357.845
  C      337.871    -933.951     358.072
  C      338.898    -933.537     357.212
  N      339.483    -932.289     357.247
  N      337.244    -933.341     359.140
  C      336.341    -934.219     359.536
  N      336.323    -935.332     358.755
  O      329.398    -936.879     361.352
  O      331.333    -938.507     361.668
  H      335.805    -939.634     359.514
  H      330.649    -939.048     361.227
  H      339.111    -936.282     355.403
  H      335.673    -934.084     360.401
  H      335.123    -936.701     357.783
  H      337.089    -937.682     359.589
  H      335.900    -936.813     361.509
  H      333.348    -937.834     360.144
  H      333.201    -937.070     362.567
  H      340.105    -932.055     356.491
  H      338.981    -931.545     357.736
  H      333.743    -935.461     362.027
  P      336.366    -939.173     362.706
  C      334.677    -938.896     364.617
  O      335.937    -938.492     364.102
  O      337.778    -938.927     362.294
  O      336.104    -940.727     362.965
  H      336.965    -941.169     363.174
  H      333.883    -938.384     364.071
  H      334.631    -938.621     365.668
  H      334.539    -939.973     364.523
  H      330.256    -935.937     365.254
  H      329.053    -935.987     363.989
  H      330.432    -934.925     363.841

 3  4  5  6  7  8  9  10  11  12  22  25  29  30  31  32 0
 6-311+G(2d,p)
 ****
 33  36  37 0
 6-311+G(2d,p)
 ****
 1  2  13  14  15  16  17  18  19  20  21  23  24  26 0
 3-21G
 ****
 27  28  34  35  38  39  40  41  42  43  44  45  46  47  48 0
 3-21G
 ****


