%nproc=1
%NoSave
%Mem=1900MB
#P OB98/GEN NMR

erre ene a

0 1
  C      453.204    -898.900    -897.750
  O      453.920    -897.730    -898.090
  H      453.901    -899.610    -897.310
  H      452.740    -899.330    -898.630
  H      452.434    -898.660    -897.000
  P      453.067    -896.530    -898.730
  C      453.668    -894.560    -897.130
  O      452.720    -895.540    -897.510
  C      454.057    -894.720    -895.660
  O      454.681    -896.010    -895.480
  C      455.072    -893.670    -895.170
  O      454.842    -893.460    -893.760
  C      456.384    -894.390    -895.370
  O      457.446    -893.740    -894.680
  C      455.978    -895.780    -894.900
  N      460.407    -898.130    -893.880
  C      459.726    -897.170    -893.210
  N      458.543    -896.600    -893.550
  C      458.049    -897.160    -894.670
  C      458.627    -898.150    -895.440
  C      459.877    -898.650    -895.000
  N      460.580    -899.630    -895.670
  N      457.832    -898.430    -896.520
  C      456.787    -897.630    -896.420
  N      456.896    -896.840    -895.310
  O      451.663    -897.220    -899.070
  O      453.682    -895.870    -899.920
  H      458.291    -894.150    -894.920
  H      451.657    -897.500    -900.000
  H      460.200    -896.800    -892.320
  H      455.950    -897.590    -897.080
  H      455.890    -895.830    -893.810
  H      456.665    -894.400    -896.440
  H      454.988    -892.700    -895.690
  H      453.142    -894.710    -895.050
  H      453.225    -893.560    -897.300
  H      454.575    -894.650    -897.760
  H      461.457    -899.910    -895.280
  H      460.190    -900.000    -896.520
  P      453.864    -892.270    -893.290
  C      452.261    -893.160    -891.400
  O      452.485    -892.900    -892.800
  O      453.476    -891.590    -894.690
  O      454.494    -891.250    -892.380
  H      453.254    -890.660    -894.550
  H      451.286    -893.580    -891.267
  H      452.333    -892.244    -890.851
  H      452.998    -893.849    -891.043

 6  7  8  9  10  11  12  13  14  15  25  28  32  33  34  35 0
 6-311+G(2d,p)
 ****
 36  37  40 0
 6-311+G(2d,p)
 ****
 1  2  3  4  5  16  17  18  19  20  21  22  23  24 0
 3-21G
 ****
 26  27  29  30  31  38  39 41  42  43  44  45  46  47  48 0
 3-21G
 ****


