%nproc=1
%NoSave
%Mem=1900MB
#P OB98/GEN NMR

erre ene a

0 1
  C     -917.498     947.045     766.114
  O     -918.907     947.276     766.303
  P     -920.002     946.166     765.980
  C     -921.065     947.200     763.867
  O     -920.290     946.106     764.388
  C     -921.583     946.918     762.430
  O     -922.657     945.930     762.411
  C     -922.124     948.163     761.696
  O     -921.809     947.944     760.296
  C     -923.590     948.078     761.953
  O     -924.393     948.841     761.043
  C     -923.801     946.570     761.835
  N     -928.897     945.953     761.338
  C     -927.911     946.249     760.454
  N     -926.610     946.345     760.625
  C     -926.260     946.084     761.920
  C     -927.157     945.764     762.965
  C     -928.513     945.727     762.608
  N     -929.517     945.496     763.537
  N     -926.459     945.619     764.153
  C     -925.181     945.822     763.797
  N     -925.045     946.109     762.509
  O     -921.237     946.254     766.797
  O     -919.257     944.770     766.273
  H     -925.332     948.647     761.242
  H     -919.854     944.185     766.776
  H     -928.278     946.415     759.432
  H     -924.373     945.782     764.543
  H     -923.869     946.235     760.767
  H     -923.833     948.452     762.974
  H     -921.651     949.094     762.039
  H     -920.762     946.443     761.878
  H     -920.490     948.089     763.861
  H     -930.484     945.557     763.242
  H     -929.286     945.415     764.531
  H     -921.939     947.333     764.550
  P     -920.445     948.446     759.636
  C     -921.007     950.953     759.510
  O     -920.231     949.980     760.148
  O     -920.366     948.276     758.170
  O     -919.303     947.642     760.401
  H     -918.470     947.661     759.869
  H     -920.604     951.170     758.506
  H     -920.999     951.863     760.108
  H     -922.063     950.634     759.403
  H     -916.952     947.922     766.393
  H     -917.308     946.819     765.085
  H     -917.187     946.222     766.723

 3  4  5  6  7  8  9  10  11  12  22  25  29  30  31  32 0
 6-311+G(2d,p)
 ****
 33  36  37 0
 6-311+G(2d,p)
 ****
 1  2  13  14  15  16  17  18  19  20  21  23  24  26 0
 3-21G
 ****
 27  28  34  35  38  39  40  41  42  43  44  45  46  47  48 0
 3-21G
 ****


