%nproc=1
%NoSave
%Mem=1900MB
#P OB98/GEN NMR

erre ene a

0 1
  C      331.140     -33.058     175.174
  O      330.590     -33.760     176.270
  H      330.356     -32.447     174.719
  H      331.517     -33.757     174.421
  H      331.947     -32.398     175.506
  P      331.549     -34.736     177.103
  C      330.801     -36.955     176.012
  O      331.838     -35.989     176.148
  C      331.390     -38.361     176.005
  O      332.151     -38.581     174.800
  C      332.335     -38.642     177.175
  O      331.597     -38.966     178.340
  C      333.119     -39.819     176.615
  O      332.320     -41.013     176.690
  C      333.305     -39.395     175.147
  N      338.181     -39.612     173.777
  C      337.274     -40.634     173.999
  N      337.751     -41.892     173.882
  N      336.026     -40.438     174.328
  C      335.712     -39.130     174.480
  C      336.525     -38.032     174.302
  C      337.891     -38.262     173.885
  O      338.725     -37.385     173.659
  N      335.873     -36.866     174.609
  C      334.652     -37.256     174.934
  N      334.509     -38.622     174.886
  O      331.079     -35.118     178.474
  O      332.951     -33.968     177.140
  H      332.028     -41.097     177.616
  H      333.030     -33.415     177.940
  H      339.137     -39.830     173.544
  H      333.842     -36.592     175.210
  H      333.319     -40.254     174.465
  H      334.047     -40.009     177.152
  H      338.742     -42.095     173.914
  H      333.028     -37.813     177.345
  H      337.118     -42.653     174.090
  H      330.557     -39.074     175.993
  H      330.283     -36.750     175.067
  H      330.083     -36.860     176.834
  P      332.226     -38.757     179.805
  C      332.592     -41.259     180.343
  O      333.198     -40.012     180.017
  O      331.229     -38.550     180.892
  O      333.254     -37.550     179.630
  H      332.845     -36.659     179.764
  H      333.350     -42.005     180.456
  H      331.923     -41.546     179.559
  H      332.048     -41.162     181.259

 6  7  8  9  10  11  12  13  14  15  26  29  33  34 0
 6-311+G(2d,p)
 ****
 36  38  39  40  41 0
 6-311+G(2d,p)
 ****
 1  2  3  4  5  16  17  18  19  20  21  22  23  24  25 0
 3-21G
 ****
 27  28  30  31  32  35  37  42  43  44  45  46  47 0
 3-21G
 ****
 48  49 0
 3-21G
 ****


