%nproc=1
%NoSave
%Mem=1900MB
#P OB98/GEN NMR

erre ene a

0 1
  C       -6.474    -200.674     -35.807
  O       -6.562    -201.458     -34.621
  P       -5.519    -202.657     -34.416
  C       -3.027    -201.774     -34.548
  O       -4.167    -202.096     -33.781
  C       -2.043    -200.970     -33.682
  O       -2.635    -199.713     -33.288
  C       -1.638    -201.694     -32.401
  O       -0.539    -202.563     -32.607
  C       -1.328    -200.537     -31.473
  O       -0.033    -199.986     -31.773
  C       -2.444    -199.536     -31.855
  N       -3.756    -199.665     -31.185
  C       -3.871    -199.375     -29.826
  O       -2.936    -199.013     -29.115
  N       -5.124    -199.503     -29.288
  C       -6.280    -199.716     -29.978
  O       -7.383    -199.763     -29.451
  C       -6.124    -199.867     -31.429
  C       -4.897    -199.848     -31.953
  O       -5.103    -203.057     -35.907
  O       -6.063    -203.825     -33.654
  H       -0.082    -199.606     -32.668
  H       -5.399    -203.964     -36.109
  H       -5.212    -199.367     -28.293
  H       -7.021    -199.990     -32.023
  H       -4.772    -199.959     -33.028
  H       -2.108    -198.504     -31.695
  H       -1.285    -200.863     -30.436
  H       -2.492    -202.238     -31.987
  H       -1.153    -200.751     -34.283
  H       -3.303    -201.196     -35.432
  H       -2.553    -202.694     -34.905
  P       -0.594    -204.064     -32.052
  C       -0.033    -204.837     -34.432
  O        0.303    -204.931     -33.061
  O       -1.953    -204.607     -31.765
  O        0.321    -204.010     -30.735
  H       -0.234    -203.884     -29.931
  H        0.742    -205.339     -35.018
  H       -0.088    -203.790     -34.741
  H       -0.991    -205.330     -34.614
  H       -7.234    -199.920     -35.794
  H       -6.611    -201.303     -36.662
  H       -5.511    -200.209     -35.857

 3  4  5  6  7  8  9  10  11  12  13  23  28  29  30  31  32 0
 6-311+G(2d,p)
 ****
 33  34 0
 6-311+G(2d,p)
 ****
 1  2  14  15  16  17  18  19  20  21  22  24  25  26  27 0
 3-21G
 ****
 35  36  37  38  39  40  41  42  43  44  45 0
 3-21G
 ****


