%nproc=1
%NoSave
%Mem=1900MB
#P OB98/GEN NMR

erre ene a

0 1
  C     -157.707    -300.303    -159.636
  O     -156.358    -300.366    -159.222
  H     -158.080    -301.305    -159.860
  H     -158.305    -299.878    -158.825
  H     -157.803    -299.664    -160.517
  P     -155.313    -301.000    -160.261
  C     -153.352    -299.367    -159.804
  O     -154.335    -299.812    -160.728
  C     -153.812    -298.074    -159.137
  O     -155.078    -298.323    -158.479
  C     -152.834    -297.509    -158.092
  O     -152.447    -296.178    -158.444
  C     -153.646    -297.449    -156.807
  O     -153.401    -296.271    -156.041
  C     -155.087    -297.514    -157.296
  N     -156.981    -296.822    -152.618
  C     -156.463    -295.950    -153.510
  N     -156.075    -296.179    -154.780
  C     -156.292    -297.463    -155.118
  C     -156.834    -298.461    -154.326
  C     -157.172    -298.104    -153.010
  N     -157.648    -299.005    -152.085
  N     -156.893    -299.656    -155.019
  C     -156.355    -299.393    -156.192
  N     -155.959    -298.085    -156.290
  O     -156.209    -301.281    -161.559
  O     -154.623    -302.236    -159.789
  H     -153.777    -295.526    -156.547
  H     -156.042    -302.186    -161.883
  H     -156.337    -294.932    -153.152
  H     -156.186    -300.114    -156.983
  H     -155.477    -296.524    -157.566
  H     -153.396    -298.320    -156.190
  H     -151.943    -298.134    -157.966
  H     -153.997    -297.329    -159.923
  H     -152.411    -299.179    -160.332
  H     -157.753    -298.690    -151.135
  H     -157.688    -299.981    -152.338
  H     -153.183    -300.150    -159.058
  P     -151.335    -296.032    -159.599
  C     -152.476    -294.321    -161.194
  O     -152.106    -295.673    -160.960
  O     -150.863    -297.544    -159.832
  O     -150.199    -295.138    -159.237
  H     -149.947    -297.559    -160.170
  H     -152.978    -294.246    -162.136
  H     -151.599    -293.708    -161.208
  H     -153.130    -293.990    -160.414

 6  7  8  9  10  11  12  13  14  15  25  28  32  33  34  35 0
 6-311+G(2d,p)
 ****
 36  39  40 0
 6-311+G(2d,p)
 ****
 1  2  3  4  5  16  17  18  19  20  21  22  23  24 0
 3-21G
 ****
 26  27  29  30  31  37  38  41  42  43  44  45  46  47  48 0
 3-21G
 ****


