%nproc=1
%NoSave
%Mem=1900MB
#P OB98/GEN NMR

erre ene a

0 1
  C       23.907      20.787      26.372
  O       23.471      22.045      25.887
  P       24.048      22.665      24.521
  C       23.799      21.890      22.066
  O       23.884      21.505      23.427
  C       24.688      20.992      21.203
  O       26.077      21.309      21.483
  C       24.497      19.490      21.447
  O       24.678      18.829      20.191
  C       25.631      19.155      22.397
  O       25.964      17.775      22.385
  C       26.731      20.084      21.871
  N       27.772      20.335      22.861
  C       28.987      19.666      22.709
  O       29.162      18.873      21.786
  N       29.988      19.910      23.616
  C       29.767      20.685      24.633
  N       30.809      20.942      25.469
  C       28.464      21.325      24.888
  C       27.532      21.127      23.961
  O       25.419      23.236      24.624
  O       22.934      23.713      24.063
  H       25.147      17.261      22.528
  H       23.043      24.602      24.486
  H       28.320      21.941      25.766
  H       26.553      21.577      24.053
  H       27.178      19.664      20.962
  H       25.343      19.423      23.418
  H       23.506      19.249      21.844
  H       24.503      21.235      20.149
  H       31.725      20.627      25.165
  H       24.149      22.922      21.977
  H       30.810      21.761      26.066
  H       22.757      21.849      21.734
  P       23.810      17.510      19.893
  C       21.289      16.959      19.632
  O       22.263      17.887      20.059
  O       24.085      16.638      21.214
  O       24.189      16.726      18.680
  H       23.963      15.694      21.000
  H       20.298      17.378      19.827
  H       21.384      16.020      20.184
  H       21.383      16.770      18.560
  H       23.401      20.563      27.288
  H       24.962      20.818      26.545
  H       23.686      20.030      25.649

 3  4  5  6  7  8  9  10  11  12  13  23  27  28  29  30  32 0
 6-311+G(2d,p)
 ****
 34  35 0
 6-311+G(2d,p)
 ****
 1  2  14  15  16  17  18  19  20  21  22  24  25  26 0
 3-21G
 ****
 31  33  36  37  38  39  40  41  42  43  44  45  46 0
 3-21G
 ****


