%nproc=1
%NoSave
%Mem=1900MB
#P OB98/GEN NMR

erre ene a

0 1
  C      827.722    -289.024    -770.236
  O      828.328    -287.786    -769.898
  P      829.361    -287.706    -768.686
  C      831.374    -287.019    -770.178
  O      830.520    -286.679    -769.113
  C      832.544    -286.008    -770.294
  O      832.000    -284.764    -770.815
  C      833.193    -285.645    -768.975
  O      834.472    -285.064    -769.246
  C      832.268    -284.574    -768.430
  O      832.885    -283.759    -767.443
  C      831.817    -283.837    -769.733
  N      830.410    -283.400    -769.648
  C      830.190    -282.077    -769.269
  O      831.095    -281.268    -769.084
  N      828.875    -281.732    -769.030
  C      827.816    -282.595    -769.096
  O      826.721    -282.369    -768.586
  C      828.079    -283.900    -769.723
  C      829.361    -284.242    -769.943
  O      830.088    -289.135    -768.730
  O      828.752    -287.444    -767.349
  H      833.166    -284.365    -766.710
  H      829.663    -289.751    -768.103
  H      828.737    -280.825    -768.619
  H      827.244    -284.545    -769.940
  H      829.591    -285.228    -770.357
  H      832.449    -282.948    -769.915
  H      831.392    -285.070    -767.964
  H      833.300    -286.475    -768.273
  H      833.279    -286.385    -771.008
  H      830.791    -287.047    -771.109
  H      831.788    -288.017    -770.034
  P      835.717    -285.511    -768.329
  C      837.146    -285.577    -770.452
  O      837.042    -285.093    -769.134
  O      835.693    -286.902    -767.817
  O      835.680    -284.425    -767.137
  H      836.189    -284.756    -766.388
  H      837.741    -284.869    -771.059
  H      836.171    -285.678    -770.931
  H      837.650    -286.546    -770.454
  H      827.064    -288.884    -771.068
  H      827.165    -289.389    -769.398
  H      828.480    -289.733    -770.496

 3  4  5  6  7  8  9  10  11  12  13  23  28  29  30  31  32 0
 6-311+G(2d,p)
 ****
 33  34 0
 6-311+G(2d,p)
 ****
 1  2  14  15  16  17  18  19  20  21  22  24  25  26  27 0
 3-21G
 ****
 35  36  37  38  39  40  41  42  43  44  45 0
 3-21G
 ****


