%nproc=1
%NoSave
%Mem=1900MB
#P OB98/GEN NMR

erre ene a

0 1
  C     -629.036    -449.658     452.679
  O     -628.785    -448.962     453.881
  H     -629.472    -448.963     451.956
  H     -629.747    -450.476     452.859
  H     -628.112    -450.071     452.257
  P     -627.856    -449.656     454.989
  C     -627.435    -447.654     456.578
  O     -628.130    -448.879     456.371
  C     -628.155    -446.788     457.625
  O     -629.455    -446.397     457.096
  C     -628.420    -447.585     458.917
  O     -628.480    -446.741     460.068
  C     -629.809    -448.176     458.662
  O     -630.494    -448.509     459.872
  C     -630.470    -447.057     457.866
  N     -634.915    -446.027     455.579
  C     -634.272    -445.326     456.567
  N     -634.885    -444.193     457.012
  N     -633.130    -445.703     457.107
  C     -632.675    -446.886     456.610
  C     -633.231    -447.678     455.642
  C     -634.475    -447.232     455.032
  O     -635.099    -447.827     454.162
  N     -632.474    -448.799     455.415
  C     -631.463    -448.704     456.246
  N     -631.525    -447.532     456.981
  O     -626.379    -449.170     454.606
  O     -627.940    -451.147     455.069
  H     -629.945    -449.158     460.356
  H     -625.722    -449.775     454.978
  H     -635.769    -445.673     455.180
  H     -630.660    -449.413     456.350
  H     -630.918    -446.319     458.534
  H     -629.677    -449.097     458.092
  H     -635.840    -443.989     456.778
  H     -627.688    -448.367     459.087
  H     -634.597    -443.862     457.932
  H     -627.592    -445.878     457.811
  H     -627.404    -447.140     455.613
  H     -626.411    -447.850     456.885
  P     -627.107    -446.242     460.714
  C     -627.772    -443.659     460.602
  O     -627.308    -444.776     461.352
  O     -626.165    -445.981     459.460
  O     -626.509    -447.206     461.683
  H     -625.413    -446.596     459.459
  H     -627.824    -442.800     461.237
  H     -628.744    -443.872     460.210
  H     -627.096    -443.466     459.795

 6  7  8  9  10  11  12  13  14  15  26  29  33  34 0
 6-311+G(2d,p)
 ****
 36  38  39  40  41 0
 6-311+G(2d,p)
 ****
 1  2  3  4  5  16  17  18  19  20  21  22  23  24  25 0
 3-21G
 ****
 27  28  30  31  32  35  37  42  43  44  45  46  47 0
 3-21G
 ****
 48  49 0
 3-21G
 ****


