%nproc=1
%NoSave
%Mem=1900MB
#P OB98/GEN NMR

erre ene a

0 1
  C      -21.840      93.960    -173.842
  O      -20.497      94.233    -174.187
  H      -22.198      93.083    -174.385
  H      -21.894      93.757    -172.770
  H      -22.473      94.824    -174.070
  P      -20.209      94.588    -175.726
  C      -21.111      97.016    -175.586
  O      -21.276      95.716    -176.130
  C      -22.251      97.924    -176.037
  O      -22.235      99.154    -175.286
  C      -22.196      98.336    -177.504
  O      -22.687      97.314    -178.358
  C      -23.118      99.545    -177.492
  O      -24.491      99.110    -177.501
  C      -22.779     100.193    -176.142
  N      -22.098     105.257    -175.871
  C      -23.178     104.478    -175.641
  N      -23.276     103.135    -175.712
  C      -22.094     102.593    -176.047
  C      -20.902     103.253    -176.292
  C      -20.929     104.652    -176.198
  N      -19.832     105.444    -176.503
  N      -19.904     102.355    -176.622
  C      -20.493     101.177    -176.597
  N      -21.813     101.268    -176.249
  O      -20.726      93.279    -176.494
  O      -18.787      94.895    -176.050
  H      -24.580      98.484    -178.244
  H      -19.966      92.696    -176.680
  H      -24.086     105.004    -175.366
  H      -20.006     100.238    -176.827
  H      -23.666     100.592    -175.640
  H      -22.979     100.198    -178.360
  H      -21.189      98.657    -177.793
  H      -23.197      97.413    -175.812
  H      -20.158      97.435    -175.927
  H      -20.080     106.365    -176.851
  H      -19.089     104.958    -176.989
  H      -21.096      96.939    -174.494
  P      -22.518      97.519    -179.940
  C      -20.361      96.119    -179.669
  O      -20.968      97.253    -180.271
  O      -22.678      99.102    -180.114
  O      -23.497      96.781    -180.786
  H      -23.395      99.293    -180.749
  H      -19.336      96.060    -179.971
  H      -20.875      95.233    -179.978
  H      -20.414      96.209    -178.604

 6  7  8  9  10  11  12  13  14  15  25  28  32  33  34  35 0
 6-311+G(2d,p)
 ****
 36  39  40 0
 6-311+G(2d,p)
 ****
 1  2  3  4  5  16  17  18  19  20  21  22  23  24 0
 3-21G
 ****
 26  27  29  30  31  37  38  41  42  43  44  45  46  47  48 0
 3-21G
 ****


