%nproc=1
%NoSave
%Mem=1900MB
#P OB98/GEN NMR

erre ene a

0 1
  C       -3.532      61.728     -70.726
  O       -2.490      61.443     -69.814
  H       -3.486      62.787     -70.990
  H       -4.497      61.524     -70.256
  H       -3.426      61.132     -71.637
  P       -2.164      59.894     -69.548
  C       -0.449      59.769     -71.491
  O       -1.669      59.286     -70.949
  C        0.670      58.761     -71.255
  O        0.335      57.488     -71.849
  C        2.017      59.167     -71.842
  O        2.722      60.045     -70.975
  C        2.707      57.816     -71.929
  O        3.166      57.420     -70.619
  C        1.559      56.902     -72.377
  N        3.439      54.690     -76.535
  C        3.886      54.646     -75.229
  N        4.998      53.915     -75.000
  N        3.302      55.265     -74.237
  C        2.215      55.977     -74.618
  C        1.679      56.104     -75.879
  C        2.325      55.401     -76.962
  O        1.961      55.399     -78.136
  N        0.572      56.911     -75.878
  C        0.453      57.291     -74.621
  N        1.427      56.754     -73.817
  O       -3.621      59.256     -69.350
  O       -1.288      59.621     -68.373
  H        3.743      58.134     -70.291
  H       -3.776      59.115     -68.397
  H        3.932      54.203     -77.263
  H       -0.321      57.943     -74.242
  H        1.645      55.892     -71.961
  H        3.582      57.830     -72.580
  H        5.510      53.432     -75.721
  H        1.910      59.591     -72.848
  H        5.342      53.866     -74.049
  H        0.753      58.601     -70.172
  H       -0.194      60.718     -71.007
  H       -0.579      59.937     -72.565
  P        3.668      61.162     -71.630
  C        1.768      62.894     -71.963
  O        2.739      62.062     -72.582
  O        4.549      60.313     -72.662
  O        4.526      61.911     -70.671
  H        5.478      60.280     -72.358
  H        1.227      63.431     -72.714
  H        2.256      63.587     -71.311
  H        1.089      62.290     -71.398

 6  7  8  9  10  11  12  13  14  15  26  29  33  34 0
 6-311+G(2d,p)
 ****
 36  38  39  40  41 0
 6-311+G(2d,p)
 ****
 1  2  3  4  5  16  17  18  19  20  21  22  23  24  25 0
 3-21G
 ****
 27  28  30  31  32  35  37  42  43  44  45  46  47 0
 3-21G
 ****
 48  49 0
 3-21G
 ****


