%nproc=1
%NoSave
%Mem=1900MB
#P OB98/GEN NMR

erre ene a

0 1
  C      386.270    1106.965     476.084
  O      386.159    1107.875     474.974
  P      385.092    1107.563     473.831
  C      386.509    1106.055     472.242
  O      385.410    1106.152     473.130
  C      386.894    1104.579     471.975
  O      385.781    1103.887     471.304
  C      388.141    1104.392     471.077
  O      388.788    1103.193     471.508
  C      387.528    1104.181     469.698
  O      388.404    1103.552     468.789
  C      386.295    1103.324     470.073
  N      385.261    1103.296     469.032
  C      385.491    1102.492     467.926
  O      386.529    1101.864     467.720
  N      384.458    1102.449     467.011
  C      383.287    1103.139     467.074
  O      382.428    1103.090     466.210
  C      383.113    1104.000     468.252
  C      384.096    1104.029     469.170
  O      385.515    1108.608     472.687
  O      383.661    1107.762     474.199
  H      389.204    1104.120     468.707
  H      384.728    1109.043     472.328
  H      384.594    1101.865     466.208
  H      382.190    1104.561     468.356
  H      383.983    1104.641     470.072
  H      386.619    1102.312     470.296
  H      387.227    1105.151     469.284
  H      388.832    1105.259     471.117
  H      387.033    1104.080     472.938
  H      387.375    1106.570     472.655
  H      386.255    1106.544     471.290
  P      389.790    1103.281     472.772
  C      391.959    1103.927     471.434
  O      390.957    1104.305     472.377
  O      390.512    1101.861     472.693
  O      389.112    1103.520     474.095
  H      390.767    1101.615     471.769
  H      391.523    1103.362     470.619
  H      392.701    1103.315     471.945
  H      392.436    1104.826     471.055
  H      387.025    1107.314     476.757
  H      386.536    1105.993     475.723
  H      385.332    1106.911     476.596

 3  4  5  6  7  8  9  10  11  12  13  23  28  29  30  31  32 0
 6-311+G(2d,p)
 ****
 33  34 0
 6-311+G(2d,p)
 ****
 1  2  14  15  16  17  18  19  20  21  22  24  25  26 0
 3-21G
 ****
 27  35  36  37  38  39  40  41  42  43  44  45 0
 3-21G
 ****


