%nproc=1
%NoSave
%Mem=1900MB
#P OB98/GEN NMR

erre ene a

0 1
  C      582.502     -11.502     248.817
  O      581.880     -12.654     249.353
  H      583.303     -11.163     249.479
  H      582.929     -11.754     247.843
  H      581.766     -10.704     248.685
  P      581.220     -12.506     250.809
  C      581.836     -14.844     251.754
  O      580.800     -13.985     251.284
  C      581.439     -16.305     251.535
  O      580.109     -16.505     252.084
  C      581.423     -16.752     250.064
  O      582.306     -17.864     249.877
  C      579.994     -17.227     249.827
  O      579.922     -18.409     249.031
  C      579.465     -17.464     251.239
  N      575.036     -19.719     250.098
  C      576.274     -20.227     250.297
  N      577.388     -19.591     250.701
  C      577.131     -18.287     250.935
  C      575.919     -17.635     250.805
  C      574.834     -18.405     250.340
  N      573.591     -17.876     250.083
  N      576.044     -16.294     251.126
  C      577.325     -16.138     251.411
  N      578.024     -17.310     251.286
  O      579.813     -11.803     250.503
  O      582.023     -11.730     251.796
  H      580.348     -18.200     248.180
  H      579.684     -11.052     251.116
  H      576.383     -21.293     250.093
  H      577.805     -15.194     251.661
  H      579.713     -18.471     251.611
  H      579.436     -16.429     249.320
  H      581.689     -15.944     249.375
  H      582.121     -16.937     252.119
  H      581.991     -14.674     252.826
  H      572.909     -18.470     249.650
  H      573.468     -16.873     250.163
  H      582.762     -14.608     251.225
  P      583.154     -17.884     248.506
  C      583.307     -20.246     247.421
  O      583.828     -19.337     248.383
  O      584.395     -16.928     248.843
  O      582.392     -17.414     247.313
  H      584.739     -16.529     248.021
  H      583.858     -21.162     247.461
  H      583.395     -19.820     246.443
  H      582.277     -20.439     247.635

 6  7  8  9  10  11  12  13  14  15  25  28  32  33  34  35 0
 6-311+G(2d,p)
 ****
 36  39  40 0
 6-311+G(2d,p)
 ****
 1  2  3  4  5  16  17  18  19  20  21  22  23  24 0
 3-21G
 ****
 26  27  29  30  31  37  38  41  42  43  44  45  46  47  48 0
 3-21G
 ****


