%nproc=1
%NoSave
%Mem=1900MB
#P OB98/GEN NMR

erre ene a

0 1
  C     -186.301    -206.118     -54.101
  O     -185.138    -205.591     -54.712
  H     -186.028    -207.014     -53.536
  H     -187.032    -206.393     -54.866
  H     -186.737    -205.387     -53.414
  P     -185.282    -204.150     -55.393
  C     -185.299    -201.701     -54.451
  O     -185.520    -203.084     -54.209
  C     -186.300    -200.864     -53.656
  O     -187.643    -201.089     -54.127
  C     -186.371    -201.212     -52.181
  O     -185.242    -200.768     -51.461
  C     -187.660    -200.503     -51.785
  O     -187.433    -199.121     -51.484
  C     -188.522    -200.654     -53.062
  N     -189.636    -201.561     -52.857
  C     -190.827    -201.203     -53.507
  O     -190.868    -200.191     -54.208
  N     -191.940    -201.981     -53.310
  C     -191.881    -203.005     -52.518
  N     -193.029    -203.714     -52.342
  C     -190.648    -203.415     -51.815
  C     -189.573    -202.654     -52.028
  O     -186.716    -204.243     -56.094
  O     -184.172    -203.779     -56.316
  H     -188.111    -198.869     -50.823
  H     -187.417    -204.577     -55.512
  H     -190.647    -204.284     -51.176
  H     -188.626    -202.883     -51.551
  H     -188.925    -199.680     -53.370
  H     -188.110    -200.951     -50.895
  H     -186.526    -202.293     -52.054
  H     -186.051    -199.805     -53.804
  H     -193.863    -203.363     -52.800
  H     -185.383    -201.478     -55.520
  H     -193.121    -204.478     -51.692
  H     -184.277    -201.466     -54.143
  P     -184.940    -201.292     -49.976
  C     -184.454    -203.583     -48.903
  O     -184.974    -202.900     -50.039
  O     -185.795    -200.702     -48.906
  O     -183.375    -200.998     -49.800
  H     -182.799    -201.443     -50.445
  H     -184.528    -204.639     -49.057
  H     -185.015    -203.309     -48.034
  H     -183.428    -203.314     -48.764

 6  7  8  9  10  11  12  13  14  15  16  26  30  31  32  33  35 0
 6-311+G(2d,p)
 ****
 37  38 0
 6-311+G(2d,p)
 ****
 1  2  3  4  5  17  18  19  20  21  22  23  24  25 0
 3-21G
 ****
 27  28  29  34  36  39  40  41  42  43  44  45  46 0
 3-21G
 ****


