%nproc=1
%NoSave
%Mem=1900MB
#P OB98/GEN NMR

erre ene a

0 1
  C     -308.637    -273.375    -176.138
  O     -310.046    -273.361    -176.284
  H     -308.344    -272.529    -175.509
  H     -308.143    -273.277    -177.109
  H     -308.320    -274.300    -175.647
  P     -310.705    -274.349    -177.369
  C     -312.935    -275.652    -177.484
  O     -311.985    -274.995    -176.645
  C     -314.166    -276.090    -176.685
  O     -313.783    -277.034    -175.659
  C     -314.848    -274.949    -175.942
  O     -315.500    -274.020    -176.785
  C     -315.648    -275.690    -174.879
  O     -316.928    -276.126    -175.330
  C     -314.749    -276.919    -174.590
  N     -314.102    -276.832    -173.287
  C     -314.291    -277.926    -172.444
  O     -314.977    -278.906    -172.745
  N     -313.699    -277.841    -171.213
  C     -313.001    -276.771    -170.731
  O     -312.526    -276.737    -169.602
  C     -312.852    -275.632    -171.659
  C     -313.405    -275.711    -172.873
  O     -309.776    -275.362    -177.974
  O     -311.358    -273.356    -178.439
  H     -317.405    -275.337    -175.659
  H     -311.558    -273.824    -179.284
  H     -313.819    -278.628    -170.594
  H     -312.303    -274.764    -171.314
  H     -313.311    -274.885    -173.575
  H     -315.343    -277.841    -174.610
  H     -315.819    -275.063    -173.996
  H     -314.076    -274.381    -175.407
  H     -314.861    -276.593    -177.369
  H     -312.444    -276.538    -177.905
  H     -313.226    -274.987    -178.303
  P     -315.677    -272.475    -176.416
  C     -315.580    -270.192    -177.667
  O     -315.504    -271.610    -177.766
  O     -314.994    -271.997    -175.174
  O     -317.268    -272.385    -176.160
  H     -317.413    -271.729    -175.453
  H     -315.448    -269.759    -178.637
  H     -314.812    -269.839    -177.011
  H     -316.537    -269.912    -177.279

 6  7  8  9  10  11  12  13  14  15  16  26  31  32  33  34  35 0
 6-311+G(2d,p)
 ****
 36  37 0
 6-311+G(2d,p)
 ****
 1  2  3  4  5  17  18  19  20  21  22  23  24  25 0
 3-21G
 ****
 27  28  29  30  38  39  40  41  42  43  44  45 0
 3-21G
 ****


