%nproc=1
%NoSave
%Mem=1900MB
#P OB98/GEN NMR

erre ene a

0 1
  C      883.235     121.804     920.417
  O      884.420     122.415     919.946
  H      882.781     122.457     921.172
  H      883.454     120.841     920.877
  H      882.518     121.682     919.597
  P      885.332     121.612     918.906
  C      884.494     123.442     917.294
  O      884.896     122.088     917.440
  C      884.424     123.830     915.804
  O      885.736     123.653     915.215
  C      883.439     122.970     914.993
  O      882.933     123.789     913.924
  C      884.359     121.891     914.443
  O      883.745     121.171     913.407
  C      885.597     122.728     914.116
  N      886.795     121.909     913.925
  C      887.597     122.242     912.836
  O      887.282     123.174     912.087
  N      888.718     121.497     912.590
  C      888.985     120.467     913.341
  N      890.104     119.754     913.046
  C      888.126     120.049     914.469
  C      887.048     120.814     914.710
  O      885.370     120.131     919.093
  O      886.786     122.259     919.086
  H      883.285     121.779     912.787
  H      887.360     121.651     919.591
  H      888.367     119.165     915.050
  H      886.359     120.585     915.507
  H      885.437     123.325     913.200
  H      884.592     121.158     915.241
  H      882.603     122.591     915.586
  H      884.175     124.900     915.724
  H      890.662     120.075     912.255
  H      885.230     124.073     917.802
  H      890.394     118.932     913.540
  H      883.512     123.607     917.762
  P      881.493     124.468     913.947
  C      882.346     126.330     912.364
  O      881.631     126.023     913.552
  O      880.720     124.232     915.215
  O      880.707     123.854     912.691
  H      879.759     123.816     912.907
  H      882.362     127.390     912.221
  H      881.866     125.865     911.529
  H      883.349     125.966     912.447

 6  7  8  9  10  11  12  13  14  15  16  26  30  31  32  33  35 0
 6-311+G(2d,p)
 ****
 37  38 0
 6-311+G(2d,p)
 ****
 1  2  3  4  5  17  18  19  20  21  22  23  24  25 0
 3-21G
 ****
 27  28  29  34  36  39  40  41  42  43  44  45  46 0
 3-21G
 ****


