%nproc=1
%NoSave
%Mem=1900MB
#P OB98/GEN NMR

erre ene a

0 1
  C      450.073      -2.016      22.093
  O      449.178      -1.081      22.675
  P      448.800      -1.288      24.222
  C      446.532      -2.359      23.520
  O      447.743      -2.493      24.262
  C      445.557      -3.472      23.890
  O      446.120      -4.753      23.559
  C      445.232      -3.543      25.377
  O      444.304      -2.533      25.726
  C      444.682      -4.962      25.497
  O      443.274      -4.998      25.197
  C      445.494      -5.728      24.425
  N      446.478      -6.634      25.009
  C      445.967      -7.825      25.539
  O      444.753      -8.043      25.513
  N      446.839      -8.710      26.121
  C      448.103      -8.428      26.173
  N      448.926      -9.346      26.757
  C      448.680      -7.174      25.641
  C      447.816      -6.325      25.089
  O      447.906      -0.003      24.554
  O      449.973      -1.419      25.141
  H      442.978      -5.898      25.446
  H      447.955       0.224      25.500
  H      449.738      -6.995      25.714
  H      448.150      -5.380      24.676
  H      444.822      -6.321      23.790
  H      444.806      -5.358      26.508
  H      446.145      -3.446      25.974
  H      444.639      -3.337      23.297
  H      448.500     -10.195      27.118
  H      446.756      -2.422      22.453
  H      449.926      -9.231      26.826
  H      446.097      -1.379      23.731
  P      444.419      -1.897      27.194
  C      442.700      -3.573      28.097
  O      444.025      -3.085      28.190
  O      443.114      -0.956      27.256
  O      445.667      -1.144      27.509
  H      443.126      -0.433      28.074
  H      442.615      -4.472      28.714
  H      442.461      -3.833      27.058
  H      441.999      -2.823      28.471
  H      450.237      -1.762      21.067
  H      449.653      -2.998      22.154
  H      451.004      -1.993      22.619

 3  4  5  6  7  8  9  10  11  12  13  21  23  27  28  29  30  32 0
 6-311+G(2d,p)
 ****
 34  35 0
 6-311+G(2d,p)
 ****
 1  2  14  15  16  17  18  19  20  22  24  25  26 0
 3-21G
 ****
 31  33  36  37  38  39  40  41  42  43  44  45  46 0
 3-21G
 ****


