%nproc=1
%NoSave
%Mem=1900MB
#P OB98/GEN NMR

erre ene a

0 1
  C     -218.895    -889.750     107.168
  O     -218.728    -891.120     106.840
  P     -218.169    -891.490     105.381
  C     -218.065    -893.900     106.465
  O     -218.183    -893.100     105.291
  C     -218.355    -895.360     106.121
  O     -217.559    -895.780     104.999
  C     -218.032    -896.350     107.243
  O     -219.039    -896.320     108.260
  C     -217.951    -897.640     106.475
  O     -219.261    -898.180     106.229
  C     -217.292    -897.200     105.157
  N     -215.850    -897.480     105.097
  C     -215.485    -898.780     104.786
  O     -216.315    -899.680     104.573
  N     -214.155    -899.050     104.760
  C     -213.153    -898.160     105.052
  O     -211.958    -898.450     105.037
  C     -213.594    -896.800     105.407
  C     -214.894    -896.530     105.399
  O     -216.618    -891.100     105.552
  O     -218.866    -890.770     104.282
  H     -216.327    -891.190     106.487
  H     -219.141    -899.040     105.796
  H     -213.865    -900.000     104.522
  H     -212.828    -896.060     105.635
  H     -215.260    -895.530     105.654
  H     -217.789    -897.680     104.295
  H     -217.372    -898.430     107.022
  H     -217.069    -896.110     107.695
  H     -219.424    -895.430     105.844
  H     -218.774    -893.550     107.218
  H     -217.044    -893.790     106.860
  P     -218.497    -896.150     109.781
  C     -220.901    -895.370     110.503
  O     -219.803    -896.240     110.723
  O     -218.082    -894.600     109.811
  O     -217.386    -897.090     110.137
  H     -218.728    -894.030     109.335
  H     -221.774    -895.800     110.989
  H     -221.088    -895.240     109.436
  H     -220.676    -894.370     110.953
  H     -219.272    -889.666     108.166
  H     -219.587    -889.302     106.486
  H     -217.952    -889.249     107.099

 3  4  5  6  7  8  9  10  11  12  13  24  28  29  30  31  32 0
 6-311+G(2d,p)
 ****
 33  34 0
 6-311+G(2d,p)
 ****
 1  2  14  15  16  17  18  19  20  21  22  23  25  26  27 0
 3-21G
 ****
 35  36  37  38  39  40  41  42  43  44  45 0
 3-21G
 ****


