%nproc=1
%NoSave
%Mem=1900MB
#P OB98/GEN NMR

erre ene a

0 1
  C       69.517    -254.885     -87.747
  O       70.751    -254.669     -87.087
  H       69.256    -255.944     -87.664
  H       69.593    -254.632     -88.808
  H       68.729    -254.289     -87.281
  P       71.428    -253.220     -87.203
  C       70.661    -252.287     -84.914
  O       71.747    -252.773     -85.698
  C       70.357    -253.261     -83.781
  O       70.076    -254.572     -84.311
  C       71.522    -253.443     -82.818
  O       71.641    -252.333     -81.951
  C       71.143    -254.753     -82.156
  O       70.158    -254.555     -81.133
  C       70.551    -255.541     -83.347
  N       71.513    -256.455     -83.953
  C       70.989    -257.646     -84.468
  O       69.782    -257.875     -84.405
  N       71.856    -258.555     -85.023
  C       73.123    -258.295     -85.076
  N       73.927    -259.236     -85.639
  C       73.716    -257.046     -84.558
  C       72.862    -256.182     -84.011
  O       70.694    -252.194     -88.011
  O       72.879    -253.531     -87.804
  H       70.043    -255.426     -80.701
  H       72.855    -253.513     -88.778
  H       74.777    -256.870     -84.628
  H       73.213    -255.239     -83.607
  H       69.678    -256.125     -83.029
  H       72.005    -255.234     -81.696
  H       72.452    -253.601     -83.375
  H       69.461    -252.911     -83.254
  H       73.480    -260.084     -85.973
  H       69.796    -252.197     -85.579
  H       74.912    -259.108     -85.813
  H       70.892    -251.296     -84.509
  P       73.027    -252.023     -81.206
  C       73.720    -250.291     -82.988
  O       73.402    -250.515     -81.616
  O       74.102    -253.033     -81.417
  O       72.585    -251.874     -79.672
  H       72.379    -252.754     -79.269
  H       73.951    -249.257     -83.136
  H       72.882    -250.561     -83.597
  H       74.566    -250.888     -83.260

 6  7  8  9  10  11  12  13  14  15  16  26  30  31  32  33  35 0
 6-311+G(2d,p)
 ****
 37  38 0
 6-311+G(2d,p)
 ****
 1  2  3  4  5  17  18  19  20  21  22  23  24  25 0
 3-21G
 ****
 27  28  29  34  36  39  40  41  42  43  44  45  46 0
 3-21G
 ****


