%nproc=1
%NoSave
%Mem=1900MB
#P OB98/GEN NMR

erre ene a

0 1
  C      -94.522     691.729     -28.905
  O      -94.036     691.857     -27.586
  H      -94.804     692.720     -29.271
  H      -95.404     691.084     -28.912
  H      -93.759     691.314     -29.570
  P      -93.225     690.636     -26.942
  C      -95.225     689.462     -25.809
  O      -94.020     690.185     -25.621
  C      -95.743     688.893     -24.481
  O      -94.836     687.872     -24.004
  C      -95.778     689.991     -23.412
  O      -96.787     689.758     -22.435
  C      -94.411     689.867     -22.756
  O      -94.369     690.422     -21.444
  C      -94.202     688.356     -22.805
  N      -90.337     686.401     -20.118
  C      -91.600     686.763     -19.695
  N      -91.861     686.602     -18.379
  N      -92.521     687.251     -20.491
  C      -92.094     687.429     -21.763
  C      -90.859     687.132     -22.298
  C      -89.865     686.557     -21.418
  O      -88.721     686.234     -21.735
  N      -90.790     687.469     -23.627
  C      -91.979     687.971     -23.896
  N      -92.809     687.956     -22.800
  O      -91.912     691.327     -26.337
  O      -92.875     689.521     -27.880
  H      -93.434     690.526     -21.198
  H      -91.188     690.682     -26.274
  H      -89.673     686.016     -19.474
  H      -92.293     688.353     -24.858
  H      -94.688     687.869     -21.948
  H      -93.688     690.419     -23.364
  H      -91.136     686.396     -17.707
  H      -95.926     690.982     -23.843
  H      -92.658     687.123     -18.006
  H      -96.715     688.416     -24.629
  H      -95.005     688.644     -26.504
  H      -95.979     690.095     -26.278
  P      -98.308     690.030     -22.861
  C      -99.021     692.403     -22.001
  O      -98.951     691.010     -21.767
  O      -99.027     688.623     -22.601
  O      -98.464     690.489     -24.268
  H      -99.206     688.175     -23.449
  H      -99.479     692.883     -21.162
  H      -99.603     692.588     -22.879
  H      -98.034     692.792     -22.139

 6  7  8  9  10  11  12  13  14  15  26  29  33  34 0
 6-311+G(2d,p)
 ****
 36  38  39  40  41 0
 6-311+G(2d,p)
 ****
 1  2  3  4  5  16  17  18  19  20  21  22  23  24  25 0
 3-21G
 ****
 27  28  30  31  32  35  37  42  43  44  45  46  47 0
 3-21G
 ****
 48  49 0
 3-21G
 ****


