%nproc=1
%NoSave
%Mem=1900MB
#P OB98/GEN NMR

erre ene a

0 1
  C     -781.062     -55.587     -29.374
  O     -779.850     -54.918     -29.070
  H     -781.875     -54.855     -29.357
  H     -781.261     -56.356     -28.626
  H     -781.010     -56.033     -30.366
  P     -778.528     -55.829     -29.024
  C     -777.736     -57.829     -27.569
  O     -778.711     -56.817     -27.764
  C     -777.529     -58.089     -26.084
  O     -778.778     -57.994     -25.378
  C     -776.948     -59.461     -25.759
  O     -775.530     -59.464     -25.904
  C     -777.381     -59.634     -24.313
  O     -776.503     -58.928     -23.404
  C     -778.789     -59.004     -24.323
  N     -781.290     -62.950     -22.413
  C     -780.290     -62.182     -21.856
  N     -779.856     -62.538     -20.631
  N     -779.755     -61.151     -22.458
  C     -780.267     -60.919     -23.689
  C     -781.273     -61.611     -24.337
  C     -781.869     -62.731     -23.661
  O     -782.811     -63.412     -24.061
  N     -781.521     -61.065     -25.573
  C     -780.647     -60.080     -25.686
  N     -779.859     -59.962     -24.581
  O     -777.392     -54.811     -28.520
  O     -778.155     -56.481     -30.306
  H     -775.684     -59.434     -23.310
  H     -776.541     -55.072     -28.905
  H     -781.668     -63.722     -21.888
  H     -780.552     -59.431     -26.546
  H     -779.024     -58.503     -23.386
  H     -777.365     -60.687     -24.012
  H     -779.977     -63.482     -20.282
  H     -777.402     -60.242     -26.388
  H     -779.098     -61.997     -20.231
  H     -776.869     -57.300     -25.710
  H     -776.793     -57.505     -28.029
  H     -778.069     -58.745     -28.077
  P     -774.816     -60.876     -26.227
  C     -775.098     -63.290     -25.319
  O     -775.341     -61.901     -25.125
  O     -773.294     -60.616     -25.790
  O     -774.932     -61.326     -27.647
  H     -772.723     -61.300     -26.189
  H     -775.509     -63.842     -24.499
  H     -774.044     -63.463     -25.373
  H     -775.559     -63.609     -26.230

 6  7  8  9  10  11  12  13  14  15  26  29  33  34 0
 6-311+G(2d,p)
 ****
 36  38  39  40  41 0
 6-311+G(2d,p)
 ****
 1  2  3  4  5  16  17  18  19  20  21  22  23  24  25 0
 3-21G
 ****
 27  28  30  31  32  35  37  42  43  44  45  46  47 0
 3-21G
 ****
 48  49 0
 3-21G
 ****


