%nproc=1
%NoSave
%Mem=1900MB
#P OB98/GEN NMR

erre ene a

0 1
  C     -301.364     219.575    -384.789
  O     -301.267     220.916    -385.288
  P     -300.257     221.898    -384.511
  C     -299.965     223.135    -386.776
  O     -300.112     223.240    -385.365
  C     -300.246     224.477    -387.445
  O     -301.639     224.858    -387.336
  C     -299.466     225.634    -386.819
  O     -298.107     225.608    -387.208
  C     -300.256     226.836    -387.352
  O     -299.879     227.125    -388.705
  C     -301.702     226.307    -387.314
  N     -304.421     230.131    -385.268
  C     -303.804     230.000    -386.469
  N     -303.095     228.953    -386.937
  C     -303.070     227.951    -386.036
  C     -303.657     227.943    -384.778
  C     -304.365     229.094    -384.397
  N     -304.974     229.236    -383.172
  N     -303.415     226.740    -384.135
  C     -302.675     226.056    -384.983
  N     -302.445     226.739    -386.147
  O     -298.837     221.176    -384.686
  O     -300.609     222.091    -383.074
  H     -300.412     227.889    -389.004
  H     -298.549     220.792    -383.831
  H     -303.889     230.856    -387.132
  H     -302.273     225.059    -384.796
  H     -302.279     226.620    -388.193
  H     -300.098     227.740    -386.763
  H     -299.548     225.597    -385.722
  H     -299.990     224.404    -388.509
  H     -300.660     222.383    -387.175
  H     -305.392     230.130    -382.951
  H     -304.868     228.507    -382.477
  H     -298.955     222.783    -387.007
  P     -296.999     225.607    -386.047
  C     -295.071     224.425    -387.259
  O     -295.610     225.673    -386.845
  O     -297.051     224.097    -385.544
  O     -297.193     226.651    -384.997
  H     -297.064     223.463    -386.292
  H     -294.147     224.612    -387.819
  H     -295.772     223.907    -387.912
  H     -294.833     223.817    -386.384
  H     -302.061     219.023    -385.384
  H     -301.699     219.596    -383.773
  H     -300.404     219.106    -384.838

 3  4  5  6  7  8  9  10  11  12  22  25  29  30  31  32 0
 6-311+G(2d,p)
 ****
 33  36  37 0
 6-311+G(2d,p)
 ****
 1  2  13  14  15  16  17  18  19  20  21  23  24  26 0
 3-21G
 ****
 27  28  34  35  38  39  40  41  42  43  44  45  46  47  48 0
 3-21G
 ****


