%nproc=1
%NoSave
%Mem=1900MB
#P OB98/GEN NMR

erre ene a

0 1
  C      654.324    -133.172    -505.678
  O      655.161    -132.140    -506.196
  P      655.864    -132.305    -507.634
  C      654.474    -130.366    -508.559
  O      654.887    -131.708    -508.770
  C      653.250    -129.961    -509.404
  O      653.470    -130.269    -510.798
  C      651.939    -130.641    -508.996
  O      650.907    -129.680    -509.246
  C      651.848    -131.799    -509.963
  O      650.539    -132.327    -510.074
  C      652.419    -131.152    -511.233
  N      652.907    -132.148    -512.194
  C      652.903    -131.786    -513.536
  O      652.460    -130.689    -513.885
  N      653.364    -132.687    -514.465
  C      653.705    -133.882    -514.085
  N      654.132    -134.743    -515.054
  C      653.633    -134.334    -512.683
  C      653.240    -133.426    -511.806
  O      656.381    -133.676    -507.921
  O      657.065    -131.246    -507.593
  H      650.292    -132.737    -509.223
  H      657.800    -131.578    -508.147
  H      653.903    -135.349    -512.418
  H      653.175    -133.656    -510.745
  H      651.652    -130.550    -511.732
  H      652.513    -132.609    -509.621
  H      651.918    -130.956    -507.942
  H      653.153    -128.877    -509.322
  H      654.132    -134.393    -516.008
  H      655.312    -129.703    -508.801
  H      654.303    -135.717    -514.891
  H      654.250    -130.224    -507.496
  P      650.538    -128.528    -508.197
  C      651.422    -126.615    -509.652
  O      651.573    -127.326    -508.441
  O      650.421    -128.982    -506.778
  O      649.149    -127.920    -508.724
  H      648.712    -127.431    -508.012
  H      652.019    -125.708    -509.598
  H      650.373    -126.333    -509.812
  H      651.755    -127.233    -510.486
  H      653.951    -132.881    -504.718
  H      654.889    -134.075    -505.582
  H      653.503    -133.334    -506.345

 3  4  5  6  7  8  9  10  11  12  13  23  27  28  29  30  32 0
 6-311+G(2d,p)
 ****
 34  35 0
 6-311+G(2d,p)
 ****
 1  2  14  15  16  17  18  19  20  21  22  24  25  26 0
 3-21G
 ****
 31  33  36  37  38  39  40  41  42  43  44  45  46 0
 3-21G
 ****


