%nproc=1
%NoSave
%Mem=1900MB
#P OB98/GEN NMR

erre ene a

0 1
  C      -96.336    -513.139    -424.084
  O      -95.574    -511.966    -423.838
  P      -95.281    -511.479    -422.335
  C      -95.195    -509.180    -423.476
  O      -94.618    -510.021    -422.492
  C      -94.656    -507.748    -423.315
  O      -95.097    -507.242    -422.032
  C      -93.134    -507.602    -423.317
  O      -92.545    -507.518    -424.608
  C      -92.989    -506.252    -422.612
  O      -93.246    -505.184    -423.544
  C      -94.073    -506.327    -421.544
  N      -92.533    -504.875    -416.882
  C      -93.011    -504.178    -417.937
  N      -93.378    -504.637    -419.151
  C      -93.274    -505.982    -419.211
  C      -92.809    -506.831    -418.216
  C      -92.426    -506.226    -416.996
  N      -91.967    -506.938    -415.916
  N      -92.823    -508.133    -418.654
  C      -93.289    -508.069    -419.893
  N      -93.582    -506.788    -420.260
  O      -94.520    -512.455    -421.501
  O      -96.725    -511.147    -421.741
  H      -92.726    -505.362    -424.354
  H      -96.680    -511.106    -420.759
  H      -93.096    -503.102    -417.786
  H      -93.429    -508.925    -420.541
  H      -94.571    -505.349    -421.390
  H      -91.971    -506.087    -422.229
  H      -92.657    -508.385    -422.707
  H      -95.110    -507.127    -424.103
  H      -96.273    -509.170    -423.338
  H      -91.847    -506.453    -415.053
  H      -92.044    -507.957    -415.952
  H      -94.978    -509.563    -424.482
  P      -91.584    -508.734    -425.047
  C      -90.046    -506.870    -426.065
  O      -90.638    -508.148    -426.213
  O      -92.291    -510.004    -425.380
  O      -90.587    -508.866    -423.803
  H      -89.987    -508.120    -423.663
  H      -89.325    -506.730    -426.879
  H      -89.505    -506.796    -425.110
  H      -90.797    -506.095    -426.122
  H      -96.420    -513.295    -425.139
  H      -97.312    -513.025    -423.661
  H      -95.850    -513.981    -423.637

 3  4  5  6  7  8  9  10  11  12  22  25  29  30  31  32 0
 6-311+G(2d,p)
 ****
 33  36  37 0
 6-311+G(2d,p)
 ****
 1  2  13  14  15  16  17  18  19  20  21  23  24  26 0
 3-21G
 ****
 27  28  34  35  38  39  40  41  42  43  44  45  46  47  48 0
 3-21G
 ****


