%nproc=1
%NoSave
%Mem=1900MB
#P OB98/GEN NMR

erre ene a

0 1
  C     -542.415    -159.145      72.085
  O     -541.559    -158.999      70.951
  P     -541.778    -160.022      69.741
  C     -541.879    -158.323      67.776
  O     -541.158    -159.373      68.415
  C     -540.939    -157.487      66.909
  O     -540.140    -156.579      67.702
  C     -539.936    -158.324      66.127
  O     -540.555    -158.965      65.029
  C     -538.907    -157.264      65.749
  O     -539.373    -156.498      64.623
  C     -538.892    -156.373      67.006
  N     -534.619    -154.530      69.136
  C     -535.505    -153.984      68.268
  N     -536.614    -154.540      67.753
  C     -536.784    -155.794      68.212
  C     -535.965    -156.478      69.093
  C     -534.832    -155.796      69.562
  N     -533.919    -156.358      70.427
  N     -536.461    -157.746      69.329
  C     -537.544    -157.830      68.585
  N     -537.788    -156.673      67.900
  O     -543.358    -159.968      69.491
  O     -541.316    -161.408      70.040
  H     -540.159    -155.995      64.921
  H     -543.769    -160.797      69.795
  H     -535.294    -152.970      67.963
  H     -538.177    -158.703      68.504
  H     -538.824    -155.309      66.757
  H     -537.934    -157.678      65.482
  H     -539.473    -159.074      66.782
  H     -541.551    -156.899      66.215
  H     -542.356    -157.680      68.527
  H     -533.091    -155.825      70.652
  H     -534.019    -157.327      70.684
  H     -542.687    -158.757      67.184
  P     -539.782    -160.189      64.343
  C     -541.645    -161.866      64.882
  O     -540.955    -161.171      63.862
  O     -539.185    -160.953      65.609
  O     -538.788    -159.800      63.297
  H     -539.851    -161.046      66.320
  H     -542.440    -162.465      64.423
  H     -542.091    -161.164      65.584
  H     -540.956    -162.535      65.413
  H     -542.166    -158.405      72.817
  H     -542.286    -160.120      72.506
  H     -543.433    -159.019      71.782

 3  4  5  6  7  8  9  10  11  12  22  25  29  30  31  32 0
 6-311+G(2d,p)
 ****
 33  36  37 0
 6-311+G(2d,p)
 ****
 1  2  13  14  15  16  17  18  19  20  21  23  24  26 0
 3-21G
 ****
 27  28  34  35  38  39  40  41  42  43  44  45  46  47  48 0
 3-21G
 ****


