%nproc=1
%NoSave
%Mem=1900MB
#P OB98/GEN NMR

erre ene a

0 1
  C      -70.214     217.943     -92.187
  O      -70.415     219.220     -91.571
  P      -70.966     219.231     -90.063
  C      -73.075     220.393     -91.098
  O      -72.129     220.334     -90.039
  C      -73.853     221.707     -91.030
  O      -74.599     221.795     -89.793
  C      -72.978     222.950     -91.065
  O      -72.475     223.194     -92.368
  C      -73.951     224.001     -90.545
  O      -74.824     224.437     -91.598
  C      -74.750     223.203     -89.493
  N      -74.350     223.502     -88.124
  C      -74.558     224.813     -87.705
  O      -75.023     225.687     -88.435
  N      -74.189     225.093     -86.417
  C      -73.620     224.218     -85.538
  O      -73.321     224.525     -84.392
  C      -73.379     222.861     -86.053
  C      -73.749     222.569     -87.303
  O      -69.746     219.921     -89.295
  O      -71.342     217.875     -89.570
  H      -69.300     220.603     -89.824
  H      -75.309     223.642     -91.901
  H      -74.343     226.036     -86.090
  H      -72.906     222.150     -85.392
  H      -73.578     221.574     -87.703
  H      -75.821     223.421     -89.588
  H      -73.440     224.888     -90.155
  H      -72.143     222.838     -90.362
  H      -74.566     221.722     -91.865
  H      -73.774     219.556     -91.018
  H      -72.547     220.295     -92.050
  P      -71.047     222.550     -92.729
  C      -69.834     224.840     -92.375
  O      -70.120     223.756     -93.231
  O      -71.397     221.744     -94.066
  O      -70.476     221.710     -91.633
  H      -71.950     222.254     -94.682
  H      -68.945     225.356     -92.745
  H      -69.644     224.503     -91.353
  H      -70.675     225.541     -92.378
  H      -69.847     218.081     -93.183
  H      -71.143     217.412     -92.219
  H      -69.502     217.381     -91.619

 3  4  5  6  7  8  9  10  11  12  13  24  28  29  30  31  32 0
 6-311+G(2d,p)
 ****
 33  34 0
 6-311+G(2d,p)
 ****
 1  2  14  15  16  17  18  19  20  21  22  23  25  26  27 0
 3-21G
 ****
 35  36  37  38  39  40  41  42  43  44  45 0
 3-21G
 ****


