%nproc=1
%NoSave
%Mem=1900MB
#P OB98/GEN NMR

erre ene a

0 1
  C      473.948    -107.681     408.123
  O      474.784    -108.797     407.883
  P      474.656    -109.521     406.454
  C      473.329    -111.451     407.592
  O      473.390    -110.496     406.538
  C      472.426    -112.616     407.194
  O      471.123    -112.130     406.813
  C      472.924    -113.425     406.002
  O      473.994    -114.275     406.370
  C      471.641    -114.142     405.599
  O      471.411    -115.264     406.468
  C      470.575    -113.059     405.841
  N      466.720    -111.200     403.022
  C      466.739    -111.917     404.170
  N      467.803    -112.393     404.846
  C      468.948    -112.056     404.229
  C      469.087    -111.352     403.045
  C      467.907    -110.909     402.431
  N      467.897    -110.185     401.261
  N      470.418    -111.224     402.708
  C      471.073    -111.829     403.680
  N      470.227    -112.336     404.631
  O      475.899    -110.529     406.444
  O      474.674    -108.596     405.278
  H      471.267    -114.906     407.367
  H      476.263    -110.625     405.544
  H      465.762    -112.135     404.604
  H      472.145    -111.918     403.740
  H      469.648    -113.466     406.256
  H      471.667    -114.521     404.573
  H      473.245    -112.752     405.195
  H      472.308    -113.268     408.070
  H      472.916    -110.979     408.490
  H      467.007    -110.035     400.812
  H      468.767    -110.092     400.751
  H      474.339    -111.797     407.816
  P      474.946    -114.809     405.191
  C      473.397    -116.815     404.780
  O      473.954    -115.631     404.236
  O      475.761    -115.968     405.935
  O      475.773    -113.759     404.530
  H      475.171    -116.567     406.430
  H      472.706    -117.241     404.049
  H      472.847    -116.584     405.700
  H      474.187    -117.540     404.990
  H      474.136    -107.299     409.105
  H      472.923    -107.980     408.046
  H      474.153    -106.920     407.399

 3  4  5  6  7  8  9  10  11  12  22  25  29  30  31  32 0
 6-311+G(2d,p)
 ****
 33  36  37 0
 6-311+G(2d,p)
 ****
 1  2  13  14  15  16  17  18  19  20  21  23  24  26 0
 3-21G
 ****
 27  28  34  35  38  39  40  41  42  43  44  45  46  47  48 0
 3-21G
 ****


