%nproc=1
%NoSave
%Mem=1900MB
#P OB98/GEN NMR

erre ene a

0 1
  C     -688.902     698.007    -128.824
  O     -690.248     697.791    -129.189
  H     -688.550     698.965    -129.219
  H     -688.831     698.028    -127.733
  H     -688.270     697.193    -129.200
  P     -690.576     697.829    -130.761
  C     -691.279     700.326    -130.860
  O     -690.323     699.343    -131.241
  C     -691.598     701.235    -132.039
  O     -690.452     702.058    -132.357
  C     -691.935     700.501    -133.336
  O     -693.275     700.018    -133.337
  C     -691.740     701.625    -134.348
  O     -692.905     702.465    -134.369
  C     -690.544     702.392    -133.769
  N     -687.461     703.315    -137.773
  C     -688.670     703.816    -137.432
  N     -689.437     703.516    -136.365
  C     -688.828     702.607    -135.580
  C     -687.595     702.012    -135.797
  C     -686.897     702.393    -136.956
  N     -685.668     701.863    -137.300
  N     -687.288     701.140    -134.775
  C     -688.322     701.202    -133.953
  N     -689.276     702.073    -134.403
  O     -692.171     697.689    -130.817
  O     -689.907     696.778    -131.582
  H     -693.653     701.899    -134.661
  H     -692.417     697.163    -131.602
  H     -689.079     704.555    -138.119
  H     -688.410     700.650    -133.026
  H     -690.692     703.476    -133.835
  H     -691.585     701.259    -135.367
  H     -691.220     699.702    -133.538
  H     -692.419     701.900    -131.743
  H     -690.871     700.932    -130.041
  H     -685.138     702.316    -138.023
  H     -685.256     701.181    -136.675
  H     -692.183     699.821    -130.512
  P     -693.511     698.509    -133.820
  C     -693.578     699.168    -136.327
  O     -692.919     698.427    -135.310
  O     -695.097     698.450    -134.054
  O     -693.048     697.460    -132.863
  H     -695.408     697.526    -133.956
  H     -693.076     699.018    -137.260
  H     -693.563     700.208    -136.077
  H     -694.592     698.836    -136.410

 6  7  8  9  10  11  12  13  14  15  25  28  32  33  34  35 0
 6-311+G(2d,p)
 ****
 36  39  40 0
 6-311+G(2d,p)
 ****
 1  2  3  4  5  16  17  18  19  20  21  22  23  24 0
 3-21G
 ****
 26  27  29  30  31  37  38  41  42  43  44  45  46  47  48 0
 3-21G
 ****


