%nproc=1
%NoSave
%Mem=1900MB
#P OB98/GEN NMR

erre ene a

0 1
  C     -402.176     431.097     292.538
  O     -400.946     431.057     291.841
  H     -402.177     431.967     293.194
  H     -402.300     430.193     293.146
  H     -403.006     431.191     291.829
  P     -400.718     429.812     290.853
  C     -399.512     427.563     291.235
  O     -400.284     428.603     291.825
  C     -398.457     427.056     292.232
  O     -397.506     428.115     292.472
  C     -399.048     426.638     293.587
  O     -398.317     425.511     294.084
  C     -398.774     427.849     294.465
  O     -398.751     427.515     295.850
  C     -397.437     428.323     293.903
  N     -393.975     431.629     295.668
  C     -393.888     430.324     295.316
  N     -394.862     429.524     294.826
  C     -396.011     430.219     294.660
  C     -396.252     431.544     294.978
  C     -395.170     432.267     295.514
  N     -395.255     433.574     295.908
  N     -397.568     431.870     294.702
  C     -398.106     430.763     294.233
  N     -397.205     429.729     294.207
  O     -399.800     430.060     289.704
  O     -402.221     429.420     290.462
  H     -398.790     428.348     296.374
  H     -402.797     429.391     291.248
  H     -392.913     429.862     295.450
  H     -399.142     430.651     293.902
  H     -396.583     427.760     294.291
  H     -399.550     428.607     294.318
  H     -400.114     426.404     293.537
  H     -397.911     426.231     291.764
  H     -399.008     427.935     290.331
  H     -394.424     434.018     296.283
  H     -396.127     434.073     295.798
  H     -400.191     426.753     290.947
  P     -399.044     424.090     294.144
  C     -400.123     422.563     295.934
  O     -399.630     423.862     295.631
  O     -398.261     422.935     293.596
  O     -400.378     424.323     293.276
  H     -400.540     423.547     292.716
  H     -400.480     422.543     296.942
  H     -399.336     421.847     295.820
  H     -400.924     422.321     295.267

 6  7  8  9  10  11  12  13  14  15  25  28  32  33  34  35 0
 6-311+G(2d,p)
 ****
 36  39  40 0
 6-311+G(2d,p)
 ****
 1  2  3  4  5  16  17  18  19  20  21  22  23  24 0
 3-21G
 ****
 26  27  29  30  31  37  38  41  42  43  44  45  46  47 0
 3-21G
 ****
 48 0
 3-21G
 ****


