%nproc=1
%NoSave
%Mem=1900MB
#P OB98/GEN NMR

erre ene a

0 1
  C      109.435     -92.763    -599.961
  O      108.823     -92.534    -598.708
  H      110.139     -91.958    -600.183
  H      109.979     -93.712    -599.923
  H      108.677     -92.823    -600.748
  P      107.989     -91.170    -598.563
  C      109.746     -89.901    -597.143
  O      109.062     -89.988    -598.387
  C      110.270     -88.486    -596.926
  O      111.246     -88.205    -597.977
  C      109.188     -87.393    -596.970
  O      109.294     -86.534    -595.833
  C      109.519     -86.592    -598.222
  O      109.226     -85.207    -598.080
  C      111.014     -86.851    -598.402
  N      111.320     -83.447    -602.192
  C      111.212     -83.286    -600.850
  N      111.238     -84.236    -599.887
  C      111.415     -85.456    -600.421
  C      111.563     -85.767    -601.764
  C      111.487     -84.703    -602.677
  N      111.540     -84.868    -604.039
  N      111.720     -87.133    -601.933
  C      111.629     -87.636    -600.715
  N      111.431     -86.660    -599.773
  O      107.326     -91.301    -597.107
  O      106.952     -90.959    -599.617
  H      109.762     -84.873    -597.336
  H      106.351     -91.289    -597.197
  H      111.090     -82.262    -600.508
  H      111.656     -88.694    -600.468
  H      111.621     -86.193    -597.760
  H      108.939     -86.989    -599.068
  H      108.178     -87.807    -597.019
  H      110.811     -88.451    -595.970
  H      110.587     -90.609    -597.135
  H      111.356     -84.067    -604.620
  H      111.555     -85.814    -604.416
  H      109.049     -90.176    -596.333
  P      108.161     -86.708    -594.696
  C      106.592     -84.810    -595.536
  O      106.766     -86.208    -595.308
  O      108.550     -85.593    -593.621
  O      108.142     -88.074    -594.086
  H      108.678     -85.994    -592.740
  H      105.618     -84.634    -595.944
  H      107.335     -84.466    -596.225
  H      106.692     -84.282    -594.610

 6  7  8  9  10  11  12  13  14  15  25  28  32  33  34  35 0
 6-311+G(2d,p)
 ****
 36  39  40 0
 6-311+G(2d,p)
 ****
 1  2  3  4  5  16  17  18  19  20  21  22  23  24 0
 3-21G
 ****
 26  27  29  30  31  37  38  41  42  43  44  45  46  47  48 0
 3-21G
 ****


