%nproc=1
%NoSave
%Mem=1900MB
#P OB98/GEN NMR

erre ene a

0 1
  C      269.272     360.415    -664.292
  O      270.433     360.531    -665.093
  H      269.153     361.347    -663.719
  H      269.364     359.584    -663.588
  H      268.391     360.279    -664.919
  P      270.976     359.211    -665.830
  C      269.435     359.580    -667.876
  O      269.772     358.725    -666.779
  C      269.669     358.885    -669.212
  O      268.866     357.686    -669.300
  C      269.271     359.719    -670.418
  O      270.102     360.836    -670.648
  C      269.109     358.668    -671.506
  O      270.321     358.340    -672.167
  C      268.613     357.441    -670.697
  N      267.202     357.152    -670.950
  C      266.932     356.401    -672.090
  O      267.808     356.015    -672.867
  N      265.614     356.135    -672.339
  C      264.557     356.592    -671.597
  O      263.391     356.360    -671.900
  C      264.904     357.402    -670.415
  C      266.191     357.646    -670.159
  O      271.503     358.133    -664.927
  O      272.058     359.764    -666.866
  H      270.752     359.190    -672.419
  H      272.643     359.041    -667.187
  H      265.401     355.587    -673.151
  H      264.086     357.788    -669.811
  H      266.465     358.244    -669.286
  H      269.191     356.546    -670.960
  H      268.404     358.989    -672.278
  H      268.269     360.119    -670.231
  H      270.727     358.588    -669.264
  H      270.076     360.469    -667.805
  H      268.388     359.901    -667.780
  P      269.927     362.239    -669.897
  C      272.422     362.625    -669.327
  O      271.124     362.389    -668.833
  O      268.538     362.606    -669.483
  O      270.371     363.274    -671.052
  H      269.837     364.084    -670.951
  H      273.107     362.701    -668.508
  H      272.431     363.538    -669.886
  H      272.715     361.815    -669.962

 6  7  8  9  10  11  12  13  14  15  16  26  31  32  33  34  35 0
 6-311+G(2d,p)
 ****
 36  37 0
 6-311+G(2d,p)
 ****
 1  2  3  4  5  17  18  19  20  21  22  23  24  25 0
 3-21G
 ****
 27  28  29  30  38  39  40  41  42  43  44  45 0
 3-21G
 ****


