%nproc=1
%NoSave
%Mem=1900MB
#P OB98/GEN NMR

erre ene a

0 1
  C     -433.204      42.836    -221.332
  O     -432.823      43.598    -220.206
  H     -432.638      43.181    -222.200
  H     -434.273      42.967    -221.536
  H     -432.986      41.779    -221.164
  P     -433.585      43.290    -218.828
  C     -431.628      42.437    -217.349
  O     -432.779      42.103    -218.115
  C     -431.392      41.366    -216.285
  O     -432.546      41.274    -215.416
  C     -431.195      39.964    -216.848
  O     -429.892      39.771    -217.361
  C     -431.478      39.122    -215.617
  O     -430.317      39.001    -214.782
  C     -432.591      39.926    -214.908
  N     -433.909      39.322    -215.082
  C     -434.187      38.238    -214.255
  O     -433.390      37.801    -213.423
  N     -435.406      37.643    -214.441
  C     -436.333      37.995    -215.382
  O     -437.376      37.374    -215.545
  C     -435.989      39.157    -216.218
  C     -434.803      39.750    -216.041
  O     -434.942      42.592    -219.315
  O     -433.842      44.481    -217.969
  H     -435.678      43.225    -219.265
  H     -430.120      39.904    -214.458
  H     -435.624      36.851    -213.857
  H     -436.703      39.464    -216.968
  H     -434.518      40.594    -216.662
  H     -432.387      39.987    -213.830
  H     -431.780      38.111    -215.886
  H     -431.957      39.752    -217.609
  H     -430.524      41.667    -215.680
  H     -431.786      43.400    -216.854
  H     -430.767      42.518    -218.020
  P     -429.721      38.969    -218.737
  C     -429.162      41.110    -220.161
  O     -430.029      40.020    -219.917
  O     -431.012      38.024    -218.709
  O     -428.417      38.258    -218.862
  H     -431.785      38.454    -218.309
  H     -429.537      41.688    -220.980
  H     -428.186      40.743    -220.401
  H     -429.107      41.724    -219.287

 6  7  8  9  10  11  12  13  14  15  16  27  31  32  33  34  35 0
 6-311+G(2d,p)
 ****
 36  37 0
 6-311+G(2d,p)
 ****
 1  2  3  4  5  17  18  19  20  21  22  23  24  25 0
 3-21G
 ****
 26  28  29  30  38  39  40  41  42  43  44  45 0
 3-21G
 ****


