%nproc=1
%NoSave
%Mem=1900MB
#P OB98/GEN NMR

erre ene a

0 1
  C     -141.523    -244.589     288.928
  O     -140.372    -243.790     288.623
  P     -140.244    -242.382     289.390
  C     -140.437    -241.023     287.184
  O     -140.956    -241.251     288.488
  C     -140.358    -239.518     286.865
  O     -141.691    -238.953     286.737
  C     -139.623    -238.706     287.937
  O     -138.948    -237.627     287.272
  C     -140.763    -238.123     288.764
  O     -140.336    -236.991     289.521
  C     -141.788    -237.847     287.662
  N     -145.509    -234.530     288.794
  C     -144.269    -234.361     288.289
  N     -143.323    -235.297     288.032
  C     -143.795    -236.526     288.329
  C     -145.032    -236.856     288.856
  C     -145.921    -235.791     289.097
  N     -147.171    -235.962     289.645
  N     -145.126    -238.223     289.061
  C     -143.958    -238.706     288.663
  N     -143.136    -237.722     288.182
  O     -138.684    -242.036     289.259
  O     -140.678    -242.429     290.820
  H     -139.813    -236.410     288.927
  H     -138.248    -242.149     290.125
  H     -143.994    -233.334     288.058
  H     -143.662    -239.740     288.710
  H     -141.564    -236.921     287.107
  H     -141.138    -238.885     289.462
  H     -138.914    -239.276     288.541
  H     -139.851    -239.399     285.901
  H     -141.065    -241.517     286.442
  H     -147.733    -235.145     289.815
  H     -147.469    -236.885     289.919
  H     -139.450    -241.498     287.105
  P     -137.447    -237.922     286.784
  C     -136.877    -238.016     289.312
  O     -136.692    -238.586     288.031
  O     -136.793    -236.461     286.670
  O     -137.359    -238.672     285.487
  H     -136.056    -236.467     286.029
  H     -136.961    -238.828     290.051
  H     -137.773    -237.396     289.369
  H     -136.002    -237.407     289.564
  H     -141.491    -245.493     288.357
  H     -142.411    -244.044     288.683
  H     -141.526    -244.826     289.971

 3  4  5  6  7  8  9  10  11  12  22  25  29  30  31  32 0
 6-311+G(2d,p)
 ****
 33  36  37 0
 6-311+G(2d,p)
 ****
 1  2  13  14  15  16  17  18  19  20  21  23  24  26 0
 3-21G
 ****
 27  28  34  35  38  39  40  41  42  43  44  45  46  47  48 0
 3-21G
 ****


