%nproc=1
%NoSave
%Mem=1900MB
#P OB98/GEN NMR

erre ene a

0 1
  C     -214.356      20.652    -759.711
  O     -214.972      20.352    -760.951
  H     -214.883      21.493    -759.252
  H     -213.312      20.941    -759.855
  H     -214.414      19.791    -759.041
  P     -214.281      19.254    -761.893
  C     -216.462      18.843    -763.226
  O     -215.110      19.284    -763.263
  C     -217.266      19.524    -764.330
  O     -217.501      20.908    -763.994
  C     -216.553      19.539    -765.674
  O     -216.618      18.262    -766.290
  C     -217.302      20.645    -766.388
  O     -218.555      20.183    -766.910
  C     -217.517      21.660    -765.239
  N     -216.525      22.722    -765.231
  C     -216.519      23.581    -766.336
  O     -217.333      23.409    -767.254
  N     -215.586      24.580    -766.385
  C     -214.743      24.738    -765.417
  N     -213.845      25.746    -765.529
  C     -214.717      23.872    -764.218
  C     -215.629      22.893    -764.189
  O     -214.093      17.885    -761.312
  O     -212.887      19.932    -762.296
  H     -218.345      19.467    -767.531
  H     -212.190      19.697    -761.648
  H     -214.007      24.039    -763.431
  H     -215.686      22.210    -763.345
  H     -218.517      22.116    -765.312
  H     -216.726      21.049    -767.220
  H     -215.518      19.852    -765.549
  H     -218.244      19.024    -764.404
  H     -213.892      26.313    -766.375
  H     -216.859      19.109    -762.244
  H     -213.206      26.019    -764.799
  H     -216.517      17.755    -763.340
  P     -215.278      17.543    -766.800
  C     -215.481      15.582    -765.128
  O     -215.508      15.972    -766.502
  O     -214.006      18.116    -766.289
  O     -215.414      17.611    -768.401
  H     -215.234      18.525    -768.730
  H     -215.644      14.527    -765.053
  H     -216.251      16.100    -764.595
  H     -214.529      15.827    -764.706

 6  7  8  9  10  11  12  13  14  15  16  26  30  31  32  33  35 0
 6-311+G(2d,p)
 ****
 37  38 0
 6-311+G(2d,p)
 ****
 1  2  3  4  5  17  18  19  20  21  22  23  24  25 0
 3-21G
 ****
 27  28  29  34  36  39  40  41  42  43  44  45  46 0
 3-21G
 ****


