%nproc=1
%NoSave
%Mem=1900MB
#P OB98/GEN NMR

erre ene a

0 1
  C     -117.177     244.063     396.675
  O     -116.162     243.090     396.792
  P     -116.509     241.536     396.938
  C     -116.272     240.778     394.487
  O     -117.176     241.079     395.546
  C     -116.791     239.589     393.666
  O     -116.856     238.417     394.539
  C     -118.195     239.831     393.085
  O     -118.303     239.604     391.676
  C     -119.076     238.945     393.954
  O     -120.317     238.613     393.365
  C     -118.129     237.788     394.276
  N     -118.595     236.981     395.400
  C     -119.697     236.158     395.181
  O     -120.293     236.063     394.108
  N     -120.155     235.469     396.266
  C     -119.711     235.605     397.543
  O     -120.236     235.027     398.488
  C     -118.569     236.512     397.727
  C     -118.055     237.130     396.663
  O     -117.305     241.168     398.145
  O     -115.072     240.836     396.864
  H     -120.789     239.441     393.161
  H     -114.577     241.001     396.041
  H     -120.955     234.872     396.119
  H     -118.198     236.647     398.731
  H     -117.210     237.806     396.761
  H     -117.994     237.135     393.416
  H     -119.298     239.501     394.873
  H     -118.502     240.879     393.208
  H     -116.062     239.392     392.875
  H     -115.301     240.525     394.908
  H     -116.137     241.662     393.853
  P     -119.430     240.232     390.728
  C     -118.288     242.181     389.447
  O     -119.106     241.780     390.520
  O     -120.836     239.927     391.128
  O     -119.101     239.602     389.292
  H     -119.921     239.527     388.777
  H     -117.768     243.107     389.716
  H     -118.915     242.378     388.572
  H     -117.547     241.416     389.200
  H     -116.733     245.033     396.589
  H     -117.802     244.033     397.543
  H     -117.766     243.861     395.805

 3  4  5  6  7  8  9  10  11  12  13  23  28  29  30  31  32 0
 6-311+G(2d,p)
 ****
 33  34 0
 6-311+G(2d,p)
 ****
 1  2  14  15  16  17  18  19  20  21  22  24  25  26  27 0
 3-21G
 ****
 35  36  37  38  39  40  41  42  43  44  45 0
 3-21G
 ****


