%nproc=1
%NoSave
%Mem=1900MB
#P OB98/GEN NMR

erre ene a

0 1
  C      155.684      47.353    -132.342
  O      155.409      48.680    -132.757
  P      154.852      48.900    -134.243
  C      156.557      50.038    -135.863
  O      156.133      48.840    -135.222
  C      157.461      50.842    -134.919
  O      158.429      49.983    -134.280
  C      158.281      51.923    -135.619
  O      157.531      53.102    -135.852
  C      159.367      52.181    -134.584
  O      158.861      53.043    -133.541
  C      159.628      50.767    -134.029
  N      163.382      47.443    -133.352
  C      162.286      47.705    -132.549
  N      162.215      47.039    -131.385
  N      161.339      48.559    -132.877
  C      161.556      49.170    -134.072
  C      162.603      48.988    -134.947
  C      163.648      48.053    -134.569
  O      164.673      47.817    -135.205
  N      162.472      49.770    -136.058
  C      161.340      50.434    -135.867
  N      160.774      50.128    -134.655
  O      154.457      50.456    -134.263
  O      153.706      48.024    -134.617
  H      158.796      53.937    -133.926
  H      153.865      50.644    -135.019
  H      164.088      46.785    -133.047
  H      160.907      51.142    -136.562
  H      159.782      50.777    -132.942
  H      160.245      52.675    -135.004
  H      162.929      46.417    -131.044
  H      158.739      51.543    -136.542
  H      161.450      47.257    -130.751
  H      156.826      51.280    -134.133
  H      155.686      50.634    -136.123
  H      157.099      49.782    -136.776
  P      157.712      53.809    -137.284
  C      158.480      56.294    -137.188
  O      158.835      54.933    -137.061
  O      156.359      54.651    -137.451
  O      157.938      52.854    -138.413
  H      156.150      54.778    -138.396
  H      159.273      56.912    -136.755
  H      157.545      56.505    -136.662
  H      158.369      56.556    -138.254
  H      156.046      47.362    -131.335
  H      156.425      46.925    -132.984
  H      154.788      46.770    -132.393

 3  4  5  6  7  8  9  10  11  12  23  26  30  31 0
 6-311+G(2d,p)
 ****
 33  35  36  37  38 0
 6-311+G(2d,p)
 ****
 1  2  13  14  15  16  17  18  19  20  21  22  24  25 0
 3-21G
 ****
 27  28  29  32  34  39  40  41  42  43  44  45  46  47  48  49 0
 3-21G
 ****


