%nproc=1
%NoSave
%Mem=1900MB
#P OB98/GEN NMR

erre ene a

0 1
  C     -110.125      60.060     373.251
  O     -110.219      61.055     372.248
  H     -109.824      59.119     372.788
  H     -111.096      59.922     373.736
  H     -109.378      60.343     374.002
  P     -110.562      62.542     372.732
  C     -112.319      63.538     371.099
  O     -110.938      63.377     371.412
  C     -112.489      64.370     369.829
  O     -111.830      65.655     370.007
  C     -111.886      63.723     368.564
  O     -112.729      64.064     367.454
  C     -110.573      64.458     368.402
  O     -110.067      64.400     367.069
  C     -110.981      65.858     368.861
  N     -107.157      68.445     366.850
  C     -108.193      67.752     366.243
  N     -108.213      67.748     364.893
  N     -109.128      67.127     366.908
  C     -109.002      67.249     368.248
  C     -108.030      67.891     368.973
  C     -106.983      68.558     368.224
  O     -106.031      69.173     368.703
  N     -108.237      67.751     370.329
  C     -109.337      67.019     370.412
  N     -109.835      66.691     369.185
  O     -109.125      63.122     373.147
  O     -111.548      62.646     373.853
  H     -110.024      63.447     366.801
  H     -108.970      62.988     374.100
  H     -106.463      68.894     366.284
  H     -109.795      66.706     371.345
  H     -111.556      66.396     368.102
  H     -109.812      64.031     369.071
  H     -107.552      68.251     364.311
  H     -111.777      62.639     368.624
  H     -108.989      67.289     364.428
  H     -113.561      64.575     369.689
  H     -112.812      64.054     371.935
  H     -112.776      62.551     370.970
  P     -113.968      63.094     367.120
  C     -114.259      63.096     364.523
  O     -114.676      63.636     365.773
  O     -115.037      63.477     368.255
  O     -113.636      61.641     367.138
  H     -115.606      62.711     368.439
  H     -114.817      63.553     363.733
  H     -114.430      62.040     364.516
  H     -113.216      63.290     364.381

 6  7  8  9  10  11  12  13  14  15  26  29  33  34 0
 6-311+G(2d,p)
 ****
 36  38  39  40  41 0
 6-311+G(2d,p)
 ****
 1  2  3  4  5  16  17  18  19  20  21  22  23  24  25 0
 3-21G
 ****
 27  28  30  31  32  35  37  42  43  44  45  46  47 0
 3-21G
 ****
 48  49 0
 3-21G
 ****


