%nproc=1
%NoSave
%Mem=1900MB
#P OB98/GEN NMR

erre ene a

0 1
  C      -34.702     -43.507     -75.497
  O      -33.746     -44.479     -75.143
  P      -33.225     -45.543     -76.223
  C      -30.798     -44.698     -76.367
  O      -32.049     -44.817     -77.039
  C      -29.670     -45.206     -77.262
  O      -29.425     -44.292     -78.360
  C      -28.328     -45.320     -76.561
  O      -28.207     -46.279     -75.532
  C      -27.383     -45.450     -77.744
  O      -27.352     -46.788     -78.240
  C      -28.051     -44.506     -78.778
  N      -27.322     -43.247     -78.915
  C      -26.810     -42.977     -80.178
  O      -26.939     -43.730     -81.143
  N      -26.102     -41.812     -80.297
  C      -25.826     -40.935     -79.287
  O      -25.143     -39.929     -79.456
  C      -26.381     -41.283     -77.973
  C      -27.094     -42.404     -77.843
  O      -34.288     -46.154     -77.075
  O      -32.417     -46.603     -75.335
  H      -27.215     -47.381     -77.478
  H      -31.667     -46.230     -74.838
  H      -25.707     -41.602     -81.201
  H      -26.191     -40.599     -77.153
  H      -27.515     -42.680     -76.885
  H      -28.091     -44.988     -79.762
  H      -26.355     -45.182     -77.480
  H      -28.107     -44.354     -76.083
  H      -29.982     -46.159     -77.697
  H      -30.829     -45.298     -75.453
  H      -30.639     -43.653     -76.077
  P      -27.362     -46.037     -74.193
  C      -29.414     -45.511     -72.702
  O      -28.193     -45.053     -73.241
  O      -25.903     -45.764     -74.361
  O      -27.540     -47.448     -73.444
  H      -26.743     -47.631     -72.913
  H      -29.865     -44.700     -72.120
  H      -29.243     -46.365     -72.038
  H      -30.105     -45.790     -73.500
  H      -34.920     -42.895     -74.647
  H      -35.597     -43.991     -75.827
  H      -34.315     -42.897     -76.286

 3  4  5  6  7  8  9  10  11  12  13  23  28  29  30  31  32 0
 6-311+G(2d,p)
 ****
 33  34 0
 6-311+G(2d,p)
 ****
 1  2  14  15  16  17  18  19  20  21  22  24  25  26  27 0
 3-21G
 ****
 35  36  37  38  39  40  41  42  43  44  45 0
 3-21G
 ****


