%nproc=1
%NoSave
%Mem=1900MB
#P OB98/GEN NMR

erre ene a

0 1
  C       64.544    -177.966    -223.172
  O       65.163    -178.977    -222.397
  H       65.324    -177.373    -223.659
  H       63.950    -177.314    -222.529
  H       63.908    -178.414    -223.941
  P       64.182    -179.989    -221.630
  C       63.349    -181.427    -223.643
  O       64.182    -181.343    -222.494
  C       64.056    -182.213    -224.753
  O       65.267    -181.492    -225.138
  C       64.494    -183.625    -224.322
  O       64.472    -184.478    -225.483
  C       65.938    -183.389    -223.905
  O       66.639    -184.606    -223.833
  C       66.366    -182.412    -224.996
  N       70.829    -180.774    -226.853
  C       69.774    -181.383    -227.442
  N       68.615    -181.781    -226.878
  C       68.592    -181.465    -225.571
  C       69.590    -180.850    -224.832
  C       70.759    -180.501    -225.524
  N       71.847    -179.903    -224.928
  N       69.205    -180.723    -223.504
  C       67.997    -181.247    -223.452
  N       67.586    -181.706    -224.673
  O       62.732    -179.368    -221.900
  O       64.454    -180.173    -220.174
  H       67.605    -184.457    -223.848
  H       62.486    -178.768    -221.167
  H       69.873    -181.579    -228.508
  H       67.379    -181.330    -222.565
  H       66.519    -182.911    -225.965
  H       65.987    -182.922    -222.916
  H       63.868    -184.056    -223.539
  H       63.411    -182.247    -225.641
  H       63.126    -180.412    -223.987
  H       62.417    -181.933    -223.378
  H       72.657    -179.715    -225.493
  H       71.823    -179.725    -223.935
  P       63.381    -185.657    -225.570
  C       61.673    -184.921    -227.401
  O       62.773    -185.749    -227.052
  O       62.156    -185.033    -224.738
  O       63.795    -186.965    -224.973
  H       61.805    -185.702    -224.122
  H       61.395    -185.107    -228.417
  H       61.950    -183.894    -227.290
  H       60.845    -185.138    -226.759

 6  7  8  9  10  11  12  13  14  15  25  28  32  33  34  35 0
 6-311+G(2d,p)
 ****
 36  37  40 0
 6-311+G(2d,p)
 ****
 1  2  3  4  5  16  17  18  19  20  21  22  23  24 0
 3-21G
 ****
 26  27  29  30  31  38  39 41  42  43  44  45  46  47  48 0
 3-21G
 ****


