%nproc=1
%NoSave
%Mem=1900MB
#P OB98/GEN NMR

erre ene a

0 1
  C       82.449      17.695      88.017
  O       81.836      18.556      88.960
  P       81.095      19.867      88.402
  C       78.883      18.729      87.641
  O       80.093      19.365      87.254
  C       77.719      19.260      86.810
  O       77.451      20.640      87.129
  C       77.964      19.237      85.307
  O       77.737      17.957      84.742
  C       76.914      20.224      84.825
  O       75.627      19.581      84.762
  C       76.930      21.279      85.938
  N       77.282      25.385      83.005
  C       76.212      24.538      83.213
  N       75.099      24.788      82.491
  N       76.229      23.538      84.054
  C       77.414      23.404      84.701
  C       78.543      24.182      84.581
  C       78.513      25.277      83.637
  O       79.444      26.029      83.371
  N       79.542      23.741      85.407
  C       79.023      22.701      86.028
  N       77.749      22.430      85.602
  O       82.244      20.621      87.583
  O       80.490      20.735      89.453
  H       75.644      18.999      83.976
  H       81.990      21.551      87.430
  H       77.220      26.139      82.341
  H       79.534      22.108      86.775
  H       75.923      21.639      86.175
  H       77.124      20.614      83.825
  H       75.043      25.503      81.781
  H       78.963      19.619      85.061
  H       74.321      24.145      82.576
  H       76.826      18.674      87.063
  H       78.696      18.924      88.700
  H       78.985      17.647      87.503
  P       78.394      17.674      83.304
  C       80.785      17.717      84.321
  O       79.877      18.274      83.391
  O       77.620      18.696      82.348
  O       78.279      16.262      82.839
  H       77.612      18.364      81.430
  H       81.795      18.048      84.066
  H       80.758      16.624      84.291
  H       80.544      18.065      85.329
  H       82.900      16.870      88.528
  H       83.200      18.234      87.477
  H       81.711      17.331      87.334

 3  4  5  6  7  8  9  10  11  12  23  26  30  31 0
 6-311+G(2d,p)
 ****
 33  35  36  37  38 0
 6-311+G(2d,p)
 ****
 1  2  13  14  15  16  17  18  19  20  21  22  24  25 0
 3-21G
 ****
 27  28  29  32  34  39  40  41  42  43  44  45  46  47  48  49 0
 3-21G
 ****


