%nproc=1
%NoSave
%Mem=1900MB
#P OB98/GEN NMR

erre ene a

0 1
  C     -829.901     508.830     126.686
  O     -830.294     510.112     127.148
  P     -829.500     511.413     126.668
  C     -827.720     511.735     128.508
  O     -827.988     511.270     127.186
  C     -826.260     512.181     128.640
  O     -825.375     511.119     128.201
  C     -825.902     513.390     127.790
  O     -826.402     514.590     128.378
  C     -824.385     513.276     127.749
  O     -823.797     513.828     128.940
  C     -824.181     511.746     127.699
  N     -821.320     508.550     124.919
  C     -821.246     508.941     126.213
  N     -822.027     509.827     126.877
  C     -822.939     510.354     126.044
  C     -823.112     510.093     124.694
  C     -822.268     509.124     124.132
  N     -822.377     508.670     122.825
  N     -824.142     510.862     124.179
  C     -824.563     511.577     125.180
  N     -823.913     511.268     126.351
  O     -830.150     512.726     126.988
  O     -829.356     511.221     125.086
  H     -824.156     514.734     129.041
  H     -829.801     511.961     124.633
  H     -820.471     508.468     126.808
  H     -825.350     512.324     125.142
  H     -823.352     511.422     128.335
  H     -823.949     513.818     126.897
  H     -826.308     513.271     126.783
  H     -826.066     512.380     129.710
  H     -827.922     510.926     129.215
  H     -821.799     507.870     122.580
  H     -823.238     508.851     122.323
  H     -828.393     512.570     128.740
  P     -827.160     515.666     127.475
  C     -825.113     516.498     126.168
  O     -826.332     515.789     126.100
  O     -827.473     516.957     128.156
  O     -828.493     514.899     127.012
  H     -829.213     515.542     126.927
  H     -825.308     517.574     126.179
  H     -824.524     516.264     125.280
  H     -824.538     516.224     127.064
  H     -830.543     508.086     127.110
  H     -828.890     508.639     126.981
  H     -829.974     508.798     125.619

 3  4  5  6  7  8  9  10  11  12  22  25  29  30  31  32 0
 6-311+G(2d,p)
 ****
 33  36  37 0
 6-311+G(2d,p)
 ****
 1  2  13  14  15  16  17  18  19  20  21  23  24  26 0
 3-21G
 ****
 27  28  34  35  38  39  40  41  42  43  44  45  46  47  48 0
 3-21G
 ****


