%nproc=1
%NoSave
%Mem=1900MB
#P OB98/GEN NMR

erre ene a

0 1
  C      281.610      61.523     -23.397
  O      282.349      62.523     -22.726
  H      281.429      61.848     -24.423
  H      280.645      61.374     -22.903
  H      282.164      60.579     -23.420
  P      282.910      62.216     -21.252
  C      280.500      62.462     -20.350
  O      281.672      61.660     -20.394
  C      279.696      62.176     -19.078
  O      279.270      60.779     -19.101
  C      280.487      62.385     -17.762
  O      279.533      62.776     -16.760
  C      281.003      60.978     -17.516
  O      281.543      60.820     -16.230
  C      279.743      60.177     -17.872
  N      279.941      58.745     -18.045
  C      279.010      57.887     -17.453
  O      278.040      58.258     -16.792
  N      279.241      56.552     -17.633
  C      280.270      55.999     -18.343
  O      280.400      54.785     -18.490
  C      281.216      56.951     -18.939
  C      281.010      58.257     -18.771
  O      283.684      63.317     -20.611
  O      283.812      60.905     -21.456
  H      284.752      61.158     -21.479
  H      280.929      61.221     -15.577
  H      278.576      55.918     -17.215
  H      282.051      56.542     -19.496
  H      281.686      58.990     -19.207
  H      278.968      60.350     -17.117
  H      281.819      60.755     -18.210
  H      281.261      63.152     -17.850
  H      278.782      62.788     -19.089
  H      279.896      62.236     -21.233
  H      280.789      63.521     -20.380
  P      279.289      64.303     -16.321
  C      280.331      64.567     -13.963
  O      280.505      64.742     -15.366
  O      277.938      64.550     -15.730
  O      279.513      65.168     -17.654
  H      278.998      65.995     -17.590
  H      281.210      64.897     -13.451
  H      280.162      63.532     -13.751
  H      279.490      65.140     -13.634

 6  7  8  9  10  11  12  13  14  15  16  27  31  32  33  34  35 0
 6-311+G(2d,p)
 ****
 36  37 0
 6-311+G(2d,p)
 ****
 1  2  3  4  5  17  18  19  20  21  22  23  24  25 0
 3-21G
 ****
 26  28  29  30  38  39  40  41  42  43  44  45 0
 3-21G
 ****


