%nproc=1
%NoSave
%Mem=1900MB
#P OB98/GEN NMR

erre ene a

0 1
  C     -173.489    -126.710    -307.984
  O     -174.592    -126.264    -307.223
  H     -173.335    -127.773    -307.792
  H     -172.589    -126.165    -307.688
  H     -173.675    -126.567    -309.054
  P     -175.148    -124.791    -307.525
  C     -176.360    -125.313    -309.765
  O     -176.488    -124.976    -308.391
  C     -177.451    -124.614    -310.576
  O     -177.029    -124.558    -311.969
  C     -178.811    -125.325    -310.537
  O     -179.841    -124.333    -310.548
  C     -178.838    -126.082    -311.853
  O     -180.147    -126.398    -312.309
  C     -178.100    -125.100    -312.768
  N     -177.584    -125.738    -313.978
  C     -177.754    -125.061    -315.181
  O     -178.230    -123.931    -315.290
  N     -177.348    -125.741    -316.302
  C     -176.826    -126.998    -316.338
  O     -176.499    -127.558    -317.378
  C     -176.678    -127.665    -315.036
  C     -177.060    -127.016    -313.934
  O     -174.095    -124.220    -308.586
  O     -175.298    -123.904    -306.333
  H     -173.359    -123.771    -308.130
  H     -180.592    -126.897    -311.597
  H     -177.466    -125.263    -317.182
  H     -176.279    -128.670    -315.027
  H     -176.986    -127.488    -312.960
  H     -178.758    -124.268    -313.042
  H     -178.279    -127.021    -311.755
  H     -178.944    -125.991    -309.678
  H     -177.540    -123.579    -310.227
  H     -176.465    -126.394    -309.886
  H     -175.369    -125.011    -310.119
  P     -180.480    -123.919    -309.133
  C     -178.404    -122.739    -308.052
  O     -179.677    -122.611    -308.664
  O     -179.923    -125.085    -308.190
  O     -181.963    -123.792    -309.176
  H     -179.026    -125.378    -308.436
  H     -178.025    -121.768    -307.810
  H     -177.731    -123.226    -308.727
  H     -178.495    -123.320    -307.158

 6  7  8  9  10  11  12  13  14  15  16  27  31  32  33  34  35 0
 6-311+G(2d,p)
 ****
 36  37 0
 6-311+G(2d,p)
 ****
 1  2  3  4  5  17  18  19  20  21  22  23  24  25 0
 3-21G
 ****
 26  28  29  30  38  39  40  41  42  43  44  45 0
 3-21G
 ****


