%nproc=1
%NoSave
%Mem=1900MB
#P OB98/GEN NMR

erre ene a

0 1
  C       41.233     -97.307     266.274
  O       42.156     -96.880     267.258
  P       43.006     -95.536     267.070
  C       45.208     -96.865     266.904
  O       44.309     -95.982     266.238
  C       45.741     -97.905     265.925
  O       44.613     -98.520     265.249
  C       46.638     -97.376     264.803
  O       47.997     -97.218     265.163
  C       46.513     -98.495     263.778
  O       47.357     -99.600     264.162
  C       45.033     -98.892     263.914
  N       42.714     -99.344     259.367
  C       43.460    -100.206     260.092
  N       44.066    -100.007     261.290
  C       43.788     -98.776     261.751
  C       43.037     -97.789     261.127
  C       42.482     -98.113     259.877
  N       41.699     -97.238     259.154
  N       42.992     -96.643     261.908
  C       43.698     -96.946     262.983
  N       44.190     -98.222     262.936
  O       43.270     -94.785     268.332
  O       42.174     -94.684     266.006
  H       47.392    -100.207     263.398
  H       42.465     -93.746     266.019
  H       43.603    -101.194     259.652
  H       43.876     -96.276     263.794
  H       44.879     -99.978     263.809
  H       46.810     -98.191     262.776
  H       46.227     -96.447     264.372
  H       46.261     -98.693     266.500
  H       44.660     -97.379     267.709
  H       41.233     -97.596     258.332
  H       41.391     -96.387     259.601
  H       46.026     -96.297     267.359
  P       48.607     -95.726     265.106
  C       50.171     -96.449     263.136
  O       49.196     -95.552     263.625
  O       49.551     -95.400     266.220
  O       47.290     -94.800     265.086
  H       46.751     -94.874     264.285
  H       50.316     -96.269     262.063
  H       49.852     -97.487     263.268
  H       51.122     -96.290     263.652
  H       40.773     -98.220     266.589
  H       41.746     -97.467     265.349
  H       40.482     -96.557     266.140

 3  4  5  6  7  8  9  10  11  12  22  25  29  30  31  32 0
 6-311+G(2d,p)
 ****
 33  36  37 0
 6-311+G(2d,p)
 ****
 1  2  13  14  15  16  17  18  19  20  21  23  24  26 0
 3-21G
 ****
 27  28  34  35  38  39  40  41  42  43  44  45  46  47  48 0
 3-21G
 ****


