%nproc=1
%NoSave
%Mem=1900MB
#P OB98/GEN NMR

erre ene a

0 1
  C     -188.080     731.571      24.296
  O     -186.830     732.180      23.988
  P     -185.917     731.608      22.820
  C     -184.823     733.932      22.711
  O     -184.601     732.526      22.794
  C     -183.471     734.674      22.688
  O     -182.743     734.406      21.444
  C     -183.604     736.184      22.709
  O     -184.143     736.791      23.890
  C     -182.200     736.618      22.290
  O     -181.298     736.578      23.385
  C     -181.845     735.529      21.236
  N     -181.934     736.045      19.863
  C     -180.803     735.851      19.086
  O     -179.774     735.288      19.487
  N     -180.856     736.357      17.797
  C     -181.904     737.078      17.255
  O     -181.885     737.536      16.141
  C     -183.071     737.240      18.153
  C     -183.050     736.739      19.397
  O     -186.579     731.431      21.470
  O     -185.348     730.240      23.437
  H     -180.418     736.846      23.061
  H     -184.832     730.343      24.254
  H     -180.038     736.240      17.242
  H     -183.930     737.780      17.761
  H     -183.893     736.846      20.054
  H     -180.835     735.150      21.418
  H     -182.187     737.641      21.902
  H     -184.308     736.500      21.906
  H     -182.857     734.298      23.505
  H     -185.378     734.261      23.599
  H     -185.421     734.150      21.814
  P     -185.581     737.451      23.964
  C     -185.835     736.834      26.498
  O     -185.860     737.860      25.509
  O     -186.672     736.749      23.214
  O     -185.326     738.884      23.307
  H     -186.137     739.197      22.860
  H     -186.105     737.275      27.443
  H     -184.792     736.417      26.549
  H     -186.551     736.038      26.263
  H     -188.543     732.096      25.106
  H     -187.920     730.551      24.577
  H     -188.716     731.609      23.437

 3  4  5  6  7  8  9  10  11  12  13  23  28  29  30  31  32 0
 6-311+G(2d,p)
 ****
 33  34 0
 6-311+G(2d,p)
 ****
 1  2  14  15  16  17  18  19  20  21  22  24  25  26  27 0
 3-21G
 ****
 35  36  37  38  39  40  41  42  43  44  45 0
 3-21G
 ****


