%nproc=1
%NoSave
%Mem=1900MB
#P OB98/GEN NMR

erre ene a

0 1
  C       66.840     208.786    -421.032
  O       67.981     208.974    -420.211
  P       68.854     210.314    -420.320
  C       69.649     211.147    -418.019
  O       68.588     211.144    -418.969
  C       69.744     212.501    -417.325
  O       70.057     213.514    -418.309
  C       68.451     212.919    -416.629
  O       68.772     213.628    -415.425
  C       67.806     213.900    -417.600
  O       66.938     214.818    -416.917
  C       69.037     214.532    -418.251
  N       66.838     218.182    -421.112
  C       66.939     218.036    -419.776
  N       67.517     217.026    -419.082
  C       68.076     216.136    -419.921
  C       68.052     216.161    -421.308
  C       67.396     217.244    -421.911
  N       67.307     217.407    -423.276
  N       68.710     215.058    -421.823
  C       69.129     214.393    -420.770
  N       68.781     215.010    -419.595
  O       68.660     211.097    -421.571
  O       70.368     209.826    -420.151
  H       66.479     215.344    -417.602
  H       70.955     210.333    -420.742
  H       66.496     218.827    -419.180
  H       69.680     213.462    -420.801
  H       69.431     215.367    -417.654
  H       67.202     213.349    -418.328
  H       67.791     212.072    -416.404
  H       70.572     212.470    -416.604
  H       70.589     210.948    -418.546
  H       66.924     218.269    -423.617
  H       67.870     216.806    -423.868
  H       69.487     210.343    -417.289
  P       68.063     213.089    -414.085
  C       69.838     211.457    -413.107
  O       68.667     211.622    -413.869
  O       66.580     213.220    -414.143
  O       68.769     214.006    -412.976
  H       69.650     214.322    -413.276
  H       70.111     210.398    -413.101
  H       69.665     211.779    -412.073
  H       70.665     212.033    -413.538
  H       66.395     207.838    -420.813
  H       67.132     208.813    -422.061
  H       66.131     209.565    -420.842

 3  4  5  6  7  8  9  10  11  12  22  25  29  30  31  32 0
 6-311+G(2d,p)
 ****
 33  36  37 0
 6-311+G(2d,p)
 ****
 1  2  13  14  15  16  17  18  19  20  21  23  24  26 0
 3-21G
 ****
 27  28  34  35  38  39  40  41  42  43  44  45  46  47  48 0
 3-21G
 ****


