%nproc=1
%NoSave
%Mem=1900MB
#P OB98/GEN NMR

erre ene a

0 1
  C      203.684    -899.200     -64.997
  O      203.116    -897.950     -65.346
  H      204.724    -899.210     -65.335
  H      203.141    -900.000     -65.485
  H      203.665    -899.330     -63.912
  P      201.615    -897.670     -64.858
  C      201.918    -895.110     -64.570
  O      201.263    -896.160     -65.278
  C      202.342    -894.000     -65.522
  O      203.237    -894.560     -66.534
  C      201.181    -893.320     -66.256
  O      201.510    -891.936     -66.418
  C      201.211    -893.980     -67.631
  O      200.569    -893.190     -68.633
  C      202.721    -894.130     -67.813
  N      204.052    -894.520     -72.660
  C      203.852    -893.400     -71.871
  N      204.028    -892.200     -72.454
  N      203.508    -893.460     -70.607
  C      203.387    -894.730     -70.135
  C      203.550    -895.910     -70.811
  C      203.914    -895.840     -72.219
  O      204.087    -896.780     -72.969
  N      203.317    -896.990     -69.989
  C      203.013    -896.450     -68.832
  N      203.041    -895.080     -68.861
  O      201.773    -897.600     -63.268
  O      200.602    -898.690     -65.273
  H      201.079    -892.350     -68.724
  H      201.600    -898.480     -62.867
  H      204.308    -894.410     -73.627
  H      202.772    -897.010     -67.927
  H      203.211    -893.190     -68.082
  H      200.715    -894.950     -67.588
  H      204.340    -892.070     -73.406
  H      200.213    -893.410     -65.756
  H      203.927    -891.373     -71.875
  H      202.936    -893.260     -64.959
  H      202.807    -895.520     -64.069
  H      201.237    -894.720     -63.810
  P      200.805    -890.871     -65.448
  C      202.840    -889.256     -65.493
  O      201.454    -889.427     -65.733
  O      201.413    -891.255     -64.010
  O      199.312    -890.917     -65.443
  H      200.778    -891.012     -63.309
  H      203.121    -888.250     -65.727
  H      203.395    -889.934     -66.108
  H      203.051    -889.455     -64.463

 6  7  8  9  10  11  12  13  14  15  26  29  33  34 0
 6-311+G(2d,p)
 ****
 36  38  39  40  41 0
 6-311+G(2d,p)
 ****
 1  2  3  4  5  16  17  18  19  20  21  22  23  24  25 0
 3-21G
 ****
 27  28  30  31  32  35  37  42  43  44  45  46  47 0
 3-21G
 ****
 48  49 0
 3-21G
 ****


