%nproc=1
%NoSave
%Mem=1900MB
#P OB98/GEN NMR

erre ene a

0 1
  C     -292.726      67.216    -137.778
  O     -292.409      66.230    -138.748
  P     -293.625      65.475    -139.471
  C     -292.577      63.404    -138.329
  O     -293.257      63.912    -139.468
  C     -292.621      61.881    -138.298
  O     -291.744      61.403    -137.241
  C     -294.018      61.295    -138.043
  O     -294.236      60.185    -138.924
  C     -293.916      60.746    -136.627
  O     -294.844      59.692    -136.398
  C     -292.449      60.322    -136.599
  N     -292.563      57.196    -132.635
  C     -293.038      57.009    -133.917
  N     -293.687      55.850    -134.160
  N     -292.895      57.883    -134.879
  C     -292.202      58.988    -134.503
  C     -291.672      59.279    -133.268
  C     -291.890      58.330    -132.198
  O     -291.572      58.476    -131.016
  N     -291.021      60.488    -133.278
  C     -291.159      60.927    -134.513
  N     -291.906      60.073    -135.283
  O     -293.452      65.905    -141.003
  O     -294.983      65.821    -138.962
  H     -295.741      60.072    -136.493
  H     -294.278      66.319    -141.325
  H     -292.716      56.495    -131.930
  H     -290.757      61.864    -134.885
  H     -292.301      59.412    -137.200
  H     -294.118      61.552    -135.916
  H     -293.797      55.115    -133.478
  H     -294.836      62.018    -138.146
  H     -294.022      55.685    -135.099
  H     -292.211      61.503    -139.245
  H     -293.051      63.796    -137.421
  H     -291.535      63.750    -138.355
  P     -295.343      60.405    -140.069
  C     -297.188      59.320    -138.589
  O     -296.467      59.295    -139.804
  O     -294.607      59.894    -141.395
  O     -295.822      61.814    -140.184
  H     -294.998      60.315    -142.185
  H     -296.993      60.225    -138.008
  H     -296.905      58.449    -137.990
  H     -298.258      59.265    -138.808
  H     -291.822      67.631    -137.383
  H     -293.289      66.769    -136.986
  H     -293.306      67.991    -138.234

 3  4  5  6  7  8  9  10  11  12  23  26  30  31  33  0
 6-311+G(2d,p)
 ****
 35  36  37  38 0
 6-311+G(2d,p)
 ****
 1  2  13  14  15  16  17  18  19  20  21  22  24  25  27  28  29 0
 3-21G
 ****
 32  34  39  40  41  42  43  44  45  46  47  48  49 0
 3-21G
 ****


