%nproc=1
%NoSave
%Mem=1900MB
#P OB98/GEN NMR

erre ene a

0 1
  C      -47.545      51.798     -25.477
  O      -46.547      50.797     -25.385
  P      -46.893      49.308     -24.891
  C      -47.704      48.417     -22.602
  O      -46.943      49.394     -23.291
  C      -48.498      49.065     -21.466
  O      -49.515      49.925     -22.044
  C      -49.207      48.067     -20.541
  O      -49.183      48.621     -19.221
  C      -50.621      48.046     -21.087
  O      -51.570      47.594     -20.132
  C      -50.789      49.508     -21.513
  N      -51.851      49.688     -22.495
  C      -53.098      50.112     -22.033
  O      -53.297      50.304     -20.834
  N      -54.103      50.313     -22.945
  C      -53.908      50.031     -24.196
  N      -54.915      50.303     -25.069
  C      -52.640      49.478     -24.709
  C      -51.663      49.356     -23.817
  O      -45.998      48.246     -25.429
  O      -48.433      49.117     -25.261
  H      -51.643      48.268     -19.430
  H      -48.571      48.816     -26.194
  H      -52.535      49.232     -25.757
  H      -50.691      48.982     -24.107
  H      -50.985      50.137     -20.636
  H      -50.669      47.375     -21.952
  H      -48.725      47.085     -20.530
  H      -47.818      49.704     -20.890
  H      -55.697      50.841     -24.708
  H      -47.016      47.681     -22.176
  H      -54.731      50.421     -26.059
  H      -48.368      47.902     -23.305
  P      -48.831      47.647     -17.993
  C      -49.909      45.547     -16.919
  O      -50.071      46.659     -17.773
  O      -48.972      48.644     -16.741
  O      -47.470      47.033     -18.002
  H      -48.416      48.314     -16.010
  H      -50.852      44.994     -16.883
  H      -49.660      45.873     -15.907
  H      -49.129      44.883     -17.299
  H      -47.105      52.710     -25.824
  H      -47.981      51.957     -24.513
  H      -48.303      51.484     -26.164

 3  4  5  6  7  8  9  10  11  12  13  23  27  28  29  30  32 0
 6-311+G(2d,p)
 ****
 34  35 0
 6-311+G(2d,p)
 ****
 1  2  14  15  16  17  18  19  20  21  22  24  25  26 0
 3-21G
 ****
 31  33  36  37  38  39  40  41  42  43  44  45  46 0
 3-21G
 ****


