%nproc=1
%NoSave
%Mem=1900MB
#P OB98/GEN NMR

erre ene a

0 1
  C      104.107    -224.446     124.752
  O      105.216    -224.540     125.658
  P      104.917    -224.305     127.216
  C      104.661    -226.809     127.939
  O      104.037    -225.563     127.681
  C      104.890    -226.982     129.440
  O      103.643    -226.844     130.164
  C      105.438    -228.346     129.837
  O      106.816    -228.463     129.509
  C      105.125    -228.358     131.328
  O      106.116    -227.616     132.048
  C      103.772    -227.621     131.376
  N      102.638    -228.519     131.558
  C      101.374    -227.963     131.326
  O      101.211    -226.788     131.015
  N      100.315    -228.807     131.497
  C      100.382    -230.116     131.889
  O       99.390    -230.830     132.006
  C      101.728    -230.628     132.168
  C      102.780    -229.824     131.991
  O      103.876    -223.090     127.149
  O      106.149    -224.038     128.012
  H      103.285    -223.141     126.381
  H      106.966    -228.100     131.936
  H       99.394    -228.429     131.323
  H      101.819    -231.651     132.505
  H      103.782    -230.180     132.196
  H      103.767    -226.899     132.203
  H      105.114    -229.370     131.741
  H      104.869    -229.139     129.326
  H      105.570    -226.188     129.774
  H      105.627    -226.856     127.423
  H      104.034    -227.611     127.534
  P      107.400    -229.952     129.361
  C      107.038    -230.075     126.772
  O      106.721    -230.577     128.052
  O      106.662    -230.699     130.568
  O      108.893    -230.022     129.409
  H      105.722    -230.475     130.640
  H      106.772    -230.821     126.029
  H      108.106    -229.851     126.687
  H      106.461    -229.163     126.585
  H      104.447    -224.623     123.753
  H      103.677    -223.468     124.814
  H      103.370    -225.177     125.013

 3  4  5  6  7  8  9  10  11  12  13  24  28  29  30  31  32 0
 6-311+G(2d,p)
 ****
 33  34 0
 6-311+G(2d,p)
 ****
 1  2  14  15  16  17  18  19  20  21  22  23  25  26  27 0
 3-21G
 ****
 35  36  37  38  39  40  41  42  43  44  45 0
 3-21G
 ****


