%nproc=1
%NoSave
%Mem=1900MB
#P OB98/GEN NMR

erre ene a

0 1
  C       45.218     358.130    -297.241
  O       45.873     358.402    -296.011
  P       45.286     357.739    -294.673
  C       44.027     359.765    -293.634
  O       45.152     358.907    -293.577
  C       44.163     360.897    -292.607
  O       44.087     360.343    -291.259
  C       45.485     361.673    -292.710
  O       45.217     363.038    -292.356
  C       46.325     361.028    -291.624
  O       47.423     361.826    -291.214
  C       45.253     360.794    -290.549
  N       45.675     359.837    -289.526
  C       46.549     360.292    -288.548
  O       46.983     361.446    -288.494
  N       46.964     359.351    -287.641
  C       46.679     358.022    -287.671
  O       47.181     357.209    -286.900
  C       45.744     357.590    -288.728
  C       45.297     358.504    -289.593
  O       46.503     356.852    -294.138
  O       44.046     356.930    -294.871
  H       48.074     361.820    -291.934
  H       46.375     355.911    -294.376
  H       47.598     359.660    -286.911
  H       45.481     356.544    -288.771
  H       44.628     358.218    -290.396
  H       44.991     361.749    -290.074
  H       46.732     360.075    -291.997
  H       45.950     361.620    -293.699
  H       43.312     361.582    -292.727
  H       43.125     359.191    -293.409
  H       43.919     360.172    -294.649
  P       45.930     364.195    -293.218
  C       47.613     365.127    -291.433
  O       46.422     365.306    -292.169
  O       44.661     364.864    -293.927
  O       46.958     363.686    -294.179
  H       43.903     364.982    -293.322
  H       48.366     364.589    -292.023
  H       47.389     364.562    -290.526
  H       48.014     366.097    -291.161
  H       45.724     358.639    -298.035
  H       44.205     358.469    -297.188
  H       45.232     357.076    -297.427

 3  4  5  6  7  8  9  10  11  12  13  23  28  29  30  31  32 0
 6-311+G(2d,p)
 ****
 33  34 0
 6-311+G(2d,p)
 ****
 1  2  14  15  16  17  18  19  20  21  22  24  25  26 0
 3-21G
 ****
 27  35  36  37  38  39  40  41  42  43  44  45 0
 3-21G
 ****


