%nproc=1
%NoSave
%Mem=1900MB
#P OB98/GEN NMR

erre ene a

0 1
  C     -361.215     906.172     398.825
  O     -360.353     905.060     398.718
  H     -360.610     907.073     398.969
  H     -361.869     906.053     399.691
  H     -361.815     906.288     397.916
  P     -361.017     903.643     398.350
  C     -362.639     903.171     396.375
  O     -361.389     903.706     396.787
  C     -362.538     902.612     394.955
  O     -362.081     903.668     394.067
  C     -361.574     901.434     394.826
  O     -362.118     900.492     393.902
  C     -360.317     902.060     394.227
  O     -359.527     901.118     393.510
  C     -360.919     903.185     393.366
  N     -359.946     904.246     393.122
  C     -359.156     904.122     391.972
  O     -359.289     903.145     391.233
  N     -358.197     905.069     391.723
  C     -357.990     906.015     392.593
  N     -356.996     906.900     392.297
  C     -358.747     906.146     393.847
  C     -359.712     905.241     394.044
  O     -362.447     903.702     399.068
  O     -360.228     902.444     398.753
  H     -359.953     900.952     392.639
  H     -362.736     902.818     399.356
  H     -358.518     906.936     394.546
  H     -360.322     905.257     394.941
  H     -361.261     902.789     392.397
  H     -359.703     902.486     395.026
  H     -361.364     900.934     395.779
  H     -363.545     902.329     394.621
  H     -356.485     906.770     391.435
  H     -363.388     903.971     396.394
  H     -356.718     907.653     392.917
  H     -362.949     902.381     397.075
  P     -361.972     898.939     394.289
  C     -362.805     897.579     396.338
  O     -363.095     898.585     395.383
  O     -360.604     898.895     395.115
  O     -361.931     898.028     393.104
  H     -359.905     898.458     394.584
  H     -363.642     897.457     396.993
  H     -361.945     897.865     396.907
  H     -362.609     896.655     395.835

 6  7  8  9  10  11  12  13  14  15  16  26  30  31  32  33  35 0
 6-311+G(2d,p)
 ****
 37  38 0
 6-311+G(2d,p)
 ****
 1  2  3  4  5  17  18  19  20  21  22  23  24  25 0
 3-21G
 ****
 27  28  29  34  36  39  40  41  42  43  44  45  46 0
 3-21G
 ****


