%nproc=1
%NoSave
%Mem=1900MB
#P OB98/GEN NMR

erre ene a

0 1
  C     -620.697      24.455    -447.829
  O     -620.251      25.684    -448.367
  H     -621.753      24.300    -448.067
  H     -620.115      23.644    -448.279
  H     -620.549      24.437    -446.748
  P     -620.979      27.012    -447.830
  C     -621.290      28.080    -450.180
  O     -620.651      28.157    -448.912
  C     -621.108      29.401    -450.923
  O     -621.596      30.496    -450.119
  C     -619.653      29.741    -451.255
  O     -619.192      29.067    -452.412
  C     -619.774      31.234    -451.494
  O     -620.335      31.481    -452.798
  C     -620.755      31.661    -450.394
  N     -617.803      35.234    -448.231
  C     -618.254      35.080    -449.491
  N     -619.031      34.099    -449.994
  C     -619.350      33.218    -449.036
  C     -618.962      33.225    -447.704
  C     -618.150      34.308    -447.303
  N     -617.672      34.457    -446.019
  N     -619.452      32.124    -447.037
  C     -620.156      31.470    -447.938
  N     -620.118      32.083    -449.166
  O     -620.089      27.443    -446.566
  O     -622.422      26.865    -447.489
  H     -620.405      32.447    -452.899
  H     -620.603      28.029    -445.980
  H     -617.947      35.853    -450.194
  H     -620.713      30.556    -447.756
  H     -621.425      32.470    -450.721
  H     -618.811      31.750    -451.461
  H     -619.001      29.566    -450.395
  H     -621.719      29.361    -451.843
  H     -622.359      27.890    -450.038
  H     -616.964      35.163    -445.880
  H     -617.804      33.692    -445.363
  H     -620.855      27.253    -450.757
  P     -618.134      27.880    -452.201
  C     -616.266      28.820    -453.745
  O     -617.269      27.825    -453.546
  O     -619.041      26.560    -452.287
  O     -617.360      27.952    -450.922
  H     -618.645      25.824    -451.796
  H     -615.777      28.651    -454.682
  H     -615.548      28.766    -452.953
  H     -616.720      29.789    -453.749

 6  7  8  9  10  11  12  13  14  15  25  28  32  33  34  35 0
 6-311+G(2d,p)
 ****
 36  39  40 0
 6-311+G(2d,p)
 ****
 1  2  3  4  5  16  17  18  19  20  21  22  23  24 0
 3-21G
 ****
 26  27  29  30  31  37  38  41  42  43  44  45  46  47 0
 3-21G
 ****
 48 0
 3-21G
 ****


