%nproc=1
%NoSave
%Mem=1900MB
#P OB98/GEN NMR

erre ene a

0 1
  C     -507.088    -286.138     532.702
  O     -508.174    -285.282     533.046
  P     -508.584    -285.207     534.598
  C     -508.467    -282.654     535.098
  O     -507.868    -283.923     535.257
  C     -507.963    -281.990     533.796
  O     -508.296    -282.762     532.647
  C     -508.577    -280.614     533.558
  O     -507.950    -279.639     534.376
  C     -508.318    -280.420     532.061
  O     -507.042    -279.785     531.816
  C     -508.323    -281.869     531.524
  N     -509.447    -282.144     530.643
  C     -509.139    -282.423     529.308
  O     -507.964    -282.408     528.939
  N     -510.167    -282.682     528.440
  C     -511.392    -282.643     528.849
  N     -512.370    -282.896     527.936
  C     -511.768    -282.317     530.240
  C     -510.756    -282.075     531.089
  O     -507.785    -286.442     535.254
  O     -510.055    -285.299     534.853
  H     -506.374    -280.403     532.180
  H     -508.292    -286.812     536.002
  H     -512.802    -282.280     530.544
  H     -510.947    -281.826     532.128
  H     -507.405    -282.065     530.949
  H     -509.092    -279.790     531.601
  H     -509.649    -280.641     533.749
  H     -506.863    -281.902     533.865
  H     -512.087    -283.114     526.984
  H     -508.248    -282.008     535.957
  H     -513.347    -282.880     528.160
  H     -509.552    -282.783     535.069
  P     -508.696    -279.217     535.728
  C     -506.821    -280.314     537.105
  O     -508.210    -280.276     536.827
  O     -510.205    -279.707     535.455
  O     -508.644    -277.774     536.120
  H     -510.784    -279.411     536.169
  H     -506.648    -280.912     537.997
  H     -506.436    -279.299     537.290
  H     -506.278    -280.759     536.263
  H     -506.921    -286.095     531.646
  H     -507.322    -287.143     532.985
  H     -506.206    -285.819     533.216

 3  4  5  6  7  8  9  10  11  12  13  21  23  27  28  29  30  32 0
 6-311+G(2d,p)
 ****
 34  35 0
 6-311+G(2d,p)
 ****
 1  2  14  15  16  17  18  19  20  22  24  25  26 0
 3-21G
 ****
 31  33  36  37  38  39  40  41  42  43  44  45  46 0
 3-21G
 ****


