%nproc=1
%NoSave
%Mem=1900MB
#P OB98/GEN NMR

erre ene a

0 1
  C     -161.603       8.231    -299.011
  O     -160.450       9.033    -298.856
  P     -159.495       8.833    -297.580
  C     -160.623      10.839    -296.427
  O     -160.222       9.475    -296.303
  C     -161.917      11.088    -295.654
  O     -162.896      10.067    -295.946
  C     -161.753      11.060    -294.135
  O     -161.091      12.210    -293.653
  C     -163.198      10.907    -293.695
  O     -163.875      12.177    -293.709
  C     -163.769       9.980    -294.790
  N     -163.921       8.610    -294.335
  C     -165.145       8.289    -293.733
  O     -165.992       9.160    -293.539
  N     -165.371       6.986    -293.359
  C     -164.418       6.112    -293.461
  N     -164.722       4.825    -293.129
  C     -163.065       6.448    -293.938
  C     -162.890       7.693    -294.377
  O     -158.079       9.265    -297.776
  O     -159.575       7.261    -297.280
  H     -158.666       6.909    -297.191
  H     -164.808      11.995    -293.479
  H     -162.284       5.698    -293.942
  H     -161.935       8.025    -294.771
  H     -164.745      10.355    -295.130
  H     -163.284      10.512    -292.676
  H     -161.188      10.159    -293.850
  H     -162.321      12.058    -295.977
  H     -165.667       4.632    -292.824
  H     -160.774      11.064    -297.485
  H     -164.181       4.035    -293.474
  H     -159.818      11.487    -296.052
  P     -159.675      11.987    -292.928
  C     -160.346      13.035    -290.656
  O     -159.958      11.869    -291.354
  O     -158.955      13.408    -293.081
  O     -158.842      10.889    -293.504
  H     -157.993      13.277    -293.217
  H     -160.830      12.738    -289.719
  H     -161.052      13.643    -291.238
  H     -159.458      13.638    -290.423
  H     -162.110       8.506    -299.912
  H     -162.255       8.379    -298.176
  H     -161.317       7.201    -299.062

 3  4  5  6  7  8  9  10  11  12  13  24  27  28  29  30  32 0
 6-311+G(2d,p)
 ****
 34  35 0
 6-311+G(2d,p)
 ****
 1  2  14  15  16  17  18  19  20  21  22  23  25  26 0
 3-21G
 ****
 31  33  36  37  38  39  40  41  42  43  44  45  46 0
 3-21G
 ****


