%nproc=1
%NoSave
%Mem=1900MB
#P OB98/GEN NMR

erre ene a

0 1
  C      196.937    -489.318    -191.470
  O      196.791    -490.142    -192.612
  H      197.978    -488.992    -191.406
  H      196.689    -489.871    -190.563
  H      196.300    -488.434    -191.554
  P      195.344    -490.754    -192.925
  C      193.868    -490.992    -195.031
  O      195.074    -490.475    -194.481
  C      193.094    -489.874    -195.729
  O      192.598    -488.929    -194.761
  C      193.927    -489.076    -196.729
  O      194.022    -489.771    -197.963
  C      193.100    -487.805    -196.820
  O      191.941    -488.037    -197.642
  C      192.679    -487.603    -195.353
  N      194.513    -482.949    -194.525
  C      193.604    -483.392    -195.472
  N      193.166    -482.466    -196.350
  N      193.198    -484.628    -195.559
  C      193.778    -485.454    -194.663
  C      194.700    -485.135    -193.685
  C      195.108    -483.756    -193.560
  O      195.892    -483.318    -192.722
  N      195.113    -486.252    -193.005
  C      194.418    -487.233    -193.543
  N      193.604    -486.803    -194.559
  O      194.226    -490.308    -192.029
  O      195.568    -492.336    -192.866
  H      191.507    -488.837    -197.291
  H      195.382    -492.684    -191.972
  H      194.808    -481.986    -194.518
  H      194.464    -488.273    -193.224
  H      191.692    -487.137    -195.262
  H      193.647    -486.970    -197.256
  H      193.657    -481.595    -196.506
  H      194.911    -488.820    -196.328
  H      192.541    -482.779    -197.080
  H      192.223    -490.328    -196.215
  H      193.279    -491.406    -194.207
  H      194.087    -491.788    -195.744
  P      195.085    -489.330    -199.082
  C      196.433    -490.603    -200.881
  O      195.579    -490.701    -199.748
  O      196.182    -488.445    -198.589
  O      194.201    -488.682    -200.242
  H      194.039    -487.711    -200.127
  H      196.685    -491.585    -201.223
  H      197.326    -490.079    -200.610
  H      195.930    -490.071    -201.662

 6  7  8  9  10  11  12  13  14  15  26  29  33  34 0
 6-311+G(2d,p)
 ****
 36  38  39  40  41 0
 6-311+G(2d,p)
 ****
 1  2  3  4  5  16  17  18  19  20  21  22  23  24  25 0
 3-21G
 ****
 27  28  30  31  32  35  37  42  43  44  45  46  47 0
 3-21G
 ****
 48  49 0
 3-21G
 ****


