%nproc=1
%NoSave
%Mem=1900MB
#P OB98/GEN NMR

erre ene a

0 1
  C       10.214      34.277       8.252
  O        9.966      32.908       8.025
  P        8.486      32.392       7.688
  C        8.363      31.061       9.887
  O        7.782      32.095       9.100
  C        8.317      31.438      11.365
  O        8.746      32.809      11.568
  C        6.924      31.389      11.976
  O        6.305      30.126      12.079
  C        7.137      32.164      13.265
  O        7.720      31.343      14.276
  C        8.140      33.254      12.807
  N        7.498      34.558      12.660
  C        7.173      35.213      13.841
  O        7.397      34.752      14.960
  N        6.544      36.421      13.702
  C        6.175      37.000      12.523
  O        5.571      38.064      12.473
  C        6.530      36.253      11.309
  C        7.165      35.084      11.427
  O        8.413      31.269       6.709
  O        7.734      33.722       7.208
  H        7.811      31.889      15.081
  H        7.702      34.433       7.872
  H        6.287      36.906      14.546
  H        6.262      36.692      10.357
  H        7.436      34.514      10.545
  H        8.953      33.353      13.536
  H        6.195      32.552      13.667
  H        6.255      31.992      11.347
  H        9.018      30.797      11.905
  H        9.407      30.930       9.586
  H        7.838      30.119       9.699
  P        4.913      29.766      11.373
  C        3.781      30.268      13.650
  O        3.726      30.397      12.246
  O        4.745      28.361      10.899
  O        4.938      30.745      10.099
  H        4.458      30.321       9.363
  H        2.877      30.712      14.077
  H        4.651      30.796      14.049
  H        3.819      29.213      13.937
  H       11.254      34.421       8.460
  H        9.634      34.611       9.087
  H        9.943      34.838       7.382

 3  4  5  6  7  8  9  10  11  12  13  23  28  29  30  31  32 0
 6-311+G(2d,p)
 ****
 33  34 0
 6-311+G(2d,p)
 ****
 1  2  14  15  16  17  18  19  20  21  22  24  25  26  27 0
 3-21G
 ****
 35  36  37  38  39  40  41  42  43  44  45 0
 3-21G
 ****


