%nproc=1
%NoSave
%Mem=1900MB
#P OB98/GEN NMR

erre ene a

0 1
  C     -184.100    -312.166    -151.870
  O     -183.269    -311.473    -150.941
  P     -183.538    -309.992    -150.412
  C     -182.793    -307.574    -151.111
  O     -182.751    -308.973    -151.363
  C     -181.873    -306.765    -152.044
  O     -180.486    -307.024    -151.700
  C     -182.050    -307.212    -153.494
  O     -183.108    -306.691    -154.277
  C     -180.675    -307.043    -154.121
  O     -180.520    -305.784    -154.777
  C     -179.726    -307.141    -152.922
  N     -175.290    -309.429    -154.039
  C     -175.689    -308.129    -154.291
  N     -174.818    -307.352    -154.969
  N     -176.845    -307.646    -153.923
  C     -177.654    -308.555    -153.332
  C     -177.378    -309.874    -153.045
  C     -176.070    -310.385    -153.405
  O     -175.661    -311.524    -153.195
  N     -178.450    -310.495    -152.458
  C     -179.380    -309.563    -152.411
  N     -178.941    -308.362    -152.925
  O     -183.388    -309.795    -148.942
  O     -185.088    -309.738    -150.783
  H     -179.607    -305.737    -155.120
  H     -185.449    -309.154    -150.088
  H     -174.377    -309.742    -154.321
  H     -180.378    -309.702    -152.011
  H     -179.006    -306.309    -152.918
  H     -180.499    -307.813    -154.885
  H     -173.968    -307.698    -155.383
  H     -182.229    -308.298    -153.474
  H     -175.192    -306.478    -155.345
  H     -182.022    -305.693    -151.903
  H     -182.499    -307.435    -150.067
  H     -183.818    -307.213    -151.197
  P     -184.609    -307.246    -154.334
  C     -185.808    -309.490    -154.023
  O     -184.558    -308.830    -154.121
  O     -185.013    -307.113    -155.878
  O     -185.585    -306.522    -153.463
  H     -185.979    -307.180    -155.984
  H     -185.657    -310.478    -153.580
  H     -186.237    -309.610    -155.026
  H     -186.501    -308.922    -153.399
  H     -183.695    -313.139    -152.055
  H     -184.143    -311.618    -152.788
  H     -185.086    -312.261    -151.465

 3  4  5  6  7  8  9  10  11  12  23  26  30  31 0
 6-311+G(2d,p)
 ****
 33  35  36  37  38 0
 6-311+G(2d,p)
 ****
 1  2  13  14  15  16  17  18  19  20  21  22  24  25 0
 3-21G
 ****
 27  28  29  32  34  39  40  41  42  43  44  45  46  47  48  49 0
 3-21G
 ****


