%nproc=1
%NoSave
%Mem=1900MB
#P OB98/GEN NMR

erre ene a

0 1
  C      232.198    -449.699    -281.724
  O      232.521    -448.361    -281.400
  H      232.483    -450.339    -280.885
  H      232.750    -450.013    -282.612
  H      231.123    -449.799    -281.898
  P      232.163    -447.252    -282.505
  C      231.257    -444.865    -281.983
  O      232.270    -445.834    -281.760
  C      231.152    -443.918    -280.781
  O      230.382    -444.579    -279.730
  C      232.510    -443.544    -280.161
  O      232.382    -442.238    -279.572
  C      232.651    -444.591    -279.067
  O      233.673    -444.238    -278.161
  C      231.214    -444.605    -278.548
  N      230.761    -446.377    -273.775
  C      231.023    -445.143    -274.253
  N      231.116    -444.743    -275.540
  C      230.887    -445.772    -276.374
  C      230.593    -447.080    -276.033
  C      230.537    -447.378    -274.659
  N      230.273    -448.636    -274.169
  N      230.414    -447.857    -277.167
  C      230.600    -447.025    -278.172
  N      230.891    -445.758    -277.742
  O      230.589    -447.451    -282.727
  O      232.926    -447.353    -283.783
  H      233.635    -444.801    -277.358
  H      230.434    -448.031    -283.496
  H      231.185    -444.370    -273.504
  H      230.542    -447.285    -279.226
  H      230.987    -443.709    -277.960
  H      232.926    -445.564    -279.492
  H      233.330    -443.538    -280.888
  H      230.588    -443.022    -281.074
  H      230.301    -445.385    -282.130
  H      231.493    -444.286    -282.883
  H      230.266    -448.766    -273.171
  H      230.122    -449.395    -274.816
  P      233.021    -440.970    -280.327
  C      231.918    -438.896    -281.481
  O      231.924    -439.802    -280.385
  O      233.055    -441.471    -281.850
  O      234.387    -440.564    -279.870
  H      233.781    -441.024    -282.323
  H      231.125    -438.189    -281.355
  H      231.771    -439.439    -282.391
  H      232.854    -438.379    -281.521

 6  7  8  9  10  11  12  13  14  15  25  28  32  33  34  35 0
 6-311+G(2d,p)
 ****
 36  37  40 0
 6-311+G(2d,p)
 ****
 1  2  3  4  5  16  17  18  19  20  21  22  23  24 0
 3-21G
 ****
 26  27  29  30  31  38  39 41  42  43  44  45  46  47  48 0
 3-21G
 ****


