%nproc=1
%NoSave
%Mem=1900MB
#P OB98/GEN NMR

erre ene a

0 1
  C       13.794    -920.670     103.640
  O       12.782    -919.956     104.316
  H       13.464    -920.859     102.615
  H       13.988    -921.631     104.125
  H       14.713    -920.077     103.606
  P       12.916    -919.784     105.912
  C       12.003    -922.106     106.588
  O       11.752    -920.701     106.540
  C       11.173    -922.771     107.685
  O       11.691    -922.405     108.986
  C        9.716    -922.348     107.699
  O        8.967    -922.822     106.601
  C        9.283    -922.706     109.118
  O        8.864    -924.062     109.250
  C       10.585    -922.482     109.915
  N       10.514    -921.305     110.768
  C        9.961    -921.503     112.030
  O        9.537    -922.590     112.428
  N        9.875    -920.392     112.824
  C       10.227    -919.126     112.471
  O       10.083    -918.167     113.215
  C       10.779    -918.969     111.109
  C       10.893    -920.048     110.333
  O       12.912    -918.372     106.417
  O       14.251    -920.591     106.269
  H        8.115    -924.190     108.627
  H       14.584    -920.343     107.161
  H        9.492    -920.518     113.750
  H       11.065    -917.979     110.787
  H       11.295    -919.962     109.326
  H       10.788    -923.350     110.565
  H        8.455    -922.078     109.452
  H        9.682    -921.252     107.643
  H       11.269    -923.863     107.582
  H       13.069    -922.242     106.802
  H       11.780    -922.552     105.614
  P        8.273    -921.856     105.536
  C        6.394    -921.005     107.115
  O        6.714    -921.710     105.928
  O        8.634    -922.068     104.096
  O        8.866    -920.420     105.969
  H        8.979    -919.890     105.159
  H        5.332    -920.989     107.245
  H        6.760    -920.002     107.044
  H        6.849    -921.492     107.952

 6  7  8  9  10  11  12  13  14  15  16  26  31  32  33  34  35 0
 6-311+G(2d,p)
 ****
 36  37 0
 6-311+G(2d,p)
 ****
 1  2  3  4  5  17  18  19  20  21  22  23  24  25 0
 3-21G
 ****
 27  28  29  30  38  39  40  41  42  43  44  45 0
 3-21G
 ****


