%nproc=1
%NoSave
%Mem=1900MB
#P OB98/GEN NMR

erre ene a

0 1
  C      640.286     444.756     380.098
  O      641.354     445.643     380.368
  H      639.833     445.042     379.147
  H      639.528     444.832     380.883
  H      640.646     443.728     380.023
  P      642.263     445.385     381.669
  C      642.728     447.833     382.303
  O      643.271     446.632     381.778
  C      643.815     448.892     382.449
  O      644.734     448.484     383.494
  C      644.638     449.116     381.172
  O      644.934     450.510     381.060
  C      645.910     448.338     381.425
  O      647.019     448.860     380.695
  C      646.063     448.479     382.938
  N      650.670     446.412     383.115
  C      650.237     447.571     382.507
  N      651.165     448.279     381.815
  N      649.007     448.003     382.562
  C      648.194     447.207     383.293
  C      648.505     446.036     383.948
  C      649.864     445.559     383.866
  O      650.305     444.535     384.376
  N      647.393     445.500     384.562
  C      646.422     446.352     384.282
  N      646.847     447.396     383.507
  O      642.925     444.046     381.734
  O      641.258     445.614     382.891
  H      647.722     448.181     380.708
  H      640.945     444.760     383.242
  H      651.634     446.121     383.032
  H      645.391     446.247     384.607
  H      646.565     449.412     383.235
  H      645.773     447.288     381.137
  H      652.134     448.017     381.743
  H      644.120     448.777     380.264
  H      650.867     449.147     381.378
  H      643.352     449.832     382.782
  H      642.295     447.615     383.287
  H      641.935     448.199     381.635
  P      644.284     451.348     379.858
  C      646.175     452.976     379.195
  O      644.929     452.824     379.870
  O      642.794     451.303     379.769
  O      644.963     450.687     378.556
  H      644.339     450.762     377.812
  H      646.500     453.992     379.271
  H      646.056     452.716     378.164
  H      646.904     452.334     379.643

 6  7  8  9  10  11  12  13  14  15  26  29  33  34 0
 6-311+G(2d,p)
 ****
 36  38  39  40  41 0
 6-311+G(2d,p)
 ****
 1  2  3  4  5  16  17  18  19  20  21  22  23  24  25 0
 3-21G
 ****
 27  28  30  31  32  35  37  42  43  44  45  46  47 0
 3-21G
 ****
 48  49 0
 3-21G
 ****


