%nproc=1
%NoSave
%Mem=1900MB
#P OB98/GEN NMR

erre ene a

0 1
  C     -249.989     -41.501     -79.111
  O     -249.542     -40.198     -78.766
  P     -248.144     -39.703     -79.379
  C     -247.008     -40.814     -77.337
  O     -247.103     -39.659     -78.157
  C     -246.599     -40.449     -75.916
  O     -246.704     -41.630     -75.074
  C     -245.163     -39.916     -75.793
  O     -245.154     -38.782     -74.907
  C     -244.425     -41.049     -75.096
  O     -243.287     -40.583     -74.381
  C     -245.541     -41.611     -74.219
  N     -244.696     -44.199     -69.964
  C     -245.174     -42.915     -70.134
  N     -245.407     -42.202     -69.011
  N     -245.406     -42.374     -71.301
  C     -245.156     -43.210     -72.341
  C     -244.691     -44.507     -72.295
  C     -244.384     -45.070     -71.004
  O     -243.872     -46.171     -70.788
  N     -244.583     -45.035     -73.557
  C     -244.975     -44.068     -74.360
  N     -245.294     -42.924     -73.673
  O     -248.423     -38.159     -79.700
  O     -247.686     -40.435     -80.595
  H     -242.935     -41.341     -73.873
  H     -248.238     -37.981     -80.642
  H     -244.522     -44.558     -69.041
  H     -245.025     -44.141     -75.443
  H     -245.749     -40.932     -73.378
  H     -244.094     -41.773     -75.846
  H     -245.293     -42.569     -68.079
  H     -244.697     -39.643     -76.746
  H     -245.781     -41.269     -69.114
  H     -247.320     -39.715     -75.525
  H     -246.264     -41.497     -77.762
  H     -247.982     -41.325     -77.330
  P     -244.458     -37.452     -75.481
  C     -241.956     -38.019     -75.049
  O     -243.097     -37.282     -74.657
  O     -245.392     -36.280     -74.922
  O     -244.335     -37.427     -76.968
  H     -245.322     -35.486     -75.488
  H     -242.101     -38.530     -76.008
  H     -241.736     -38.769     -74.280
  H     -241.103     -37.341     -75.133
  H     -250.927     -41.694     -78.634
  H     -249.269     -42.223     -78.787
  H     -250.108     -41.568     -80.172

 3  4  5  6  7  8  9  10  11  12  23  26  30  31  33  0
 6-311+G(2d,p)
 ****
 35  36  37  38 0
 6-311+G(2d,p)
 ****
 1  2  13  14  15  16  17  18  19  20  21  22  24  25  27  28  29 0
 3-21G
 ****
 32  34  39  40  41  42  43  44  45  46  47  48  49 0
 3-21G
 ****


