%nproc=1
%NoSave
%Mem=1900MB
#P OB98/GEN NMR

erre ene a

0 1
  C      424.414    -891.890    -892.550
  O      424.664    -892.970    -893.440
  H      423.530    -891.350    -892.900
  H      425.269    -891.210    -892.540
  H      424.215    -892.270    -891.540
  P      425.911    -893.900    -893.080
  C      424.787    -896.220    -893.510
  O      425.292    -895.290    -892.560
  C      423.252    -896.230    -893.500
  O      422.776    -894.930    -893.950
  C      422.632    -897.270    -894.440
  O      421.367    -897.670    -893.890
  C      422.406    -896.470    -895.700
  O      421.542    -897.140    -896.610
  C      421.912    -895.160    -895.070
  N      419.411    -892.600    -898.730
  C      419.041    -893.650    -897.960
  N      419.775    -894.280    -897.000
  C      420.961    -893.670    -896.830
  C      421.457    -892.580    -897.530
  C      420.611    -892.030    -898.530
  N      420.972    -890.960    -899.320
  N      422.721    -892.280    -897.100
  C      422.995    -893.150    -896.150
  N      421.953    -894.020    -895.980
  O      426.513    -893.240    -891.750
  O      426.940    -894.040    -894.160
  H      420.733    -897.420    -896.140
  H      427.233    -892.640    -891.990
  H      418.071    -894.060    -898.160
  H      423.894    -893.200    -895.570
  H      420.887    -895.260    -894.710
  H      423.360    -896.310    -896.240
  H      423.260    -898.170    -894.580
  H      422.903    -896.350    -892.470
  H      425.173    -897.220    -893.260
  H      425.139    -895.950    -894.520
  H      420.314    -890.650    -900.000
  H      421.884    -890.560    -899.180
  P      421.332    -898.580    -892.560
  C      420.021    -897.090    -890.830
  O      421.279    -897.620    -891.280
  O      422.835    -899.140    -892.520
  O      420.347    -899.710    -892.580
  H      422.846    -900.000    -892.050
  H      420.181    -896.475    -889.969
  H      419.365    -897.896    -890.576
  H      419.581    -896.505    -891.610

 6  7  8  9  10  11  12  13  14  15  25  28  32  33  34  35 0
 6-311+G(2d,p)
 ****
 36  37  40 0
 6-311+G(2d,p)
 ****
 1  2  3  4  5  16  17  18  19  20  21  22  23  24 0
 3-21G
 ****
 26  27  29  30  31  38  39 41  42  43  44  45  46  47  48 0
 3-21G
 ****


