%nproc=1
%NoSave
%Mem=1900MB
#P OB98/GEN NMR

erre ene a

0 1
  C      510.314    -273.617     367.885
  O      509.388    -273.757     366.824
  H      510.383    -272.569     368.189
  H      509.965    -274.211     368.737
  H      511.296    -273.985     367.577
  P      509.697    -272.932     365.482
  C      507.702    -271.292     365.738
  O      509.116    -271.447     365.699
  C      507.337    -269.816     365.580
  O      507.758    -269.110     366.776
  C      507.973    -269.121     364.370
  O      506.957    -268.570     363.521
  C      508.771    -267.972     364.967
  O      508.682    -266.764     364.204
  C      508.167    -267.805     366.354
  N      511.243    -263.824     367.192
  C      510.143    -263.957     366.415
  N      509.308    -265.006     366.316
  C      509.682    -265.988     367.153
  C      510.764    -265.994     368.021
  C      511.579    -264.850     368.005
  N      512.726    -264.739     368.759
  N      510.832    -267.192     368.716
  C      509.835    -267.913     368.245
  N      509.124    -267.240     367.279
  O      508.687    -273.573     364.413
  O      511.110    -272.994     365.011
  H      509.370    -266.165     364.546
  H      509.170    -273.779     363.589
  H      509.911    -263.099     365.782
  H      509.616    -268.934     368.521
  H      507.279    -267.162     366.352
  H      509.825    -268.261     365.026
  H      508.620    -269.790     363.790
  H      506.242    -269.736     365.535
  H      507.320    -271.655     366.697
  H      513.316    -263.932     368.602
  H      513.043    -265.540     369.286
  H      507.260    -271.890     364.939
  P      506.575    -269.419     362.207
  C      508.433    -268.709     360.521
  O      507.939    -269.704     361.409
  O      505.827    -268.345     361.286
  O      505.724    -270.608     362.480
  H      505.200    -268.789     360.689
  H      509.342    -269.051     360.072
  H      508.621    -267.807     361.065
  H      507.707    -268.520     359.758

 6  7  8  9  10  11  12  13  14  15  25  28  32  33  34  35 0
 6-311+G(2d,p)
 ****
 36  39  40 0
 6-311+G(2d,p)
 ****
 1  2  3  4  5  16  17  18  19  20  21  22  23  24 0
 3-21G
 ****
 26  27  29  30  31  37  38  41  42  43  44  45  46  47  48 0
 3-21G
 ****


