%nproc=1
%NoSave
%Mem=1900MB
#P OB98/GEN NMR

erre ene a

0 1
  C        8.176      52.654     -68.963
  O        9.493      52.244     -68.634
  P       10.763      52.976     -69.269
  C       13.112      53.752     -68.391
  O       11.898      53.075     -68.153
  C       13.913      53.810     -67.084
  O       13.220      54.617     -66.110
  C       14.114      52.419     -66.487
  O       15.360      51.875     -66.892
  C       14.024      52.682     -64.997
  O       15.281      53.173     -64.495
  C       12.952      53.797     -64.941
  N       11.532      53.399     -64.978
  C       10.597      54.119     -64.242
  O       10.872      55.107     -63.568
  N        9.310      53.642     -64.286
  C        8.882      52.571     -65.015
  O        7.802      52.014     -64.860
  C        9.852      52.029     -65.972
  C       11.116      52.444     -65.895
  O       10.267      54.488     -69.427
  O       11.252      52.409     -70.561
  H       15.927      52.449     -64.584
  H        9.980      54.663     -70.342
  H        8.654      54.075     -63.644
  H        9.518      51.273     -66.669
  H       11.861      52.028     -66.569
  H       13.088      54.427     -64.055
  H       13.814      51.767     -64.447
  H       13.286      51.759     -66.777
  H       14.883      54.282     -67.284
  H       12.911      54.764     -68.760
  H       13.687      53.234     -69.165
  P       15.480      50.308     -67.187
  C       17.240      49.054     -68.564
  O       16.408      50.194     -68.490
  O       14.188      49.563     -67.252
  O       16.411      49.781     -65.994
  H       15.855      49.399     -65.284
  H       17.677      49.003     -69.564
  H       16.663      48.143     -68.381
  H       18.046      49.137     -67.830
  H        7.471      52.044     -68.438
  H        8.023      52.550     -70.017
  H        8.040      53.678     -68.682

 3  4  5  6  7  8  9  10  11  12  13  23  28  29  30  31  32 0
 6-311+G(2d,p)
 ****
 33  34 0
 6-311+G(2d,p)
 ****
 1  2  14  15  16  17  18  19  20  21  22  24  25  26  27 0
 3-21G
 ****
 35  36  37  38  39  40  41  42  43  44  45 0
 3-21G
 ****


