%nproc=1
%NoSave
%Mem=1900MB
#P OB98/GEN NMR

erre ene a

0 1
  C     -738.201     337.987    -587.386
  O     -736.849     337.721    -587.783
  P     -735.763     338.883    -587.552
  C     -735.070     337.599    -585.400
  O     -735.321     338.862    -586.004
  C     -734.951     337.729    -583.868
  O     -733.935     338.727    -583.522
  C     -736.246     338.167    -583.175
  O     -736.273     337.601    -581.867
  C     -736.073     339.664    -583.063
  O     -736.959     340.229    -582.084
  C     -734.584     339.746    -582.733
  N     -734.272     344.534    -581.159
  C     -734.969     343.464    -580.632
  N     -735.661     343.698    -579.488
  N     -734.995     342.270    -581.159
  C     -734.222     342.176    -582.273
  C     -733.496     343.160    -582.906
  C     -733.509     344.489    -582.307
  O     -732.920     345.463    -582.746
  N     -732.867     342.687    -584.036
  C     -733.234     341.418    -584.096
  N     -734.025     341.053    -583.031
  O     -736.642     340.214    -587.665
  O     -734.643     338.875    -588.539
  H     -737.879     340.109    -582.415
  H     -736.424     340.676    -588.498
  H     -734.307     345.435    -580.701
  H     -732.957     340.729    -584.870
  H     -734.376     339.550    -581.670
  H     -736.292     340.143    -584.026
  H     -735.643     344.573    -578.991
  H     -737.160     337.886    -583.707
  H     -736.151     342.928    -579.062
  H     -734.611     336.759    -583.459
  H     -734.154     337.164    -585.800
  H     -735.877     336.910    -585.672
  P     -737.013     336.195    -581.694
  C     -734.961     334.615    -581.539
  O     -736.030     335.090    -582.321
  O     -738.217     336.258    -582.732
  O     -737.493     335.905    -580.297
  H     -738.932     335.675    -582.467
  H     -735.203     333.621    -581.158
  H     -734.734     335.280    -580.696
  H     -734.057     334.540    -582.169
  H     -738.809     337.132    -587.597
  H     -738.572     338.832    -587.928
  H     -738.230     338.196    -586.337

 3  4  5  6  7  8  9  10  11  12  23  26  30  31 0
 6-311+G(2d,p)
 ****
 33  35  36  37  38 0
 6-311+G(2d,p)
 ****
 1  2  13  14  15  16  17  18  19  20  21  22  24  25 0
 3-21G
 ****
 27  28  29  32  34  39  40  41  42  43  44  45  46  47  48  49 0
 3-21G
 ****


