%nproc=1
%NoSave
%Mem=1900MB
#P OB98/GEN NMR

erre ene a

0 1
  C     -363.429    -133.239    -382.042
  O     -362.485    -134.094    -381.404
  P     -362.287    -133.957    -379.817
  C     -359.976    -133.842    -378.650
  O     -360.865    -133.248    -379.581
  C     -359.117    -132.789    -377.954
  O     -358.158    -132.253    -378.910
  C     -359.901    -131.600    -377.386
  O     -359.216    -131.165    -376.204
  C     -359.753    -130.542    -378.462
  O     -359.987    -129.231    -377.967
  C     -358.323    -130.818    -378.918
  N     -354.905    -128.419    -381.880
  C     -354.849    -128.831    -380.597
  N     -355.801    -129.463    -379.876
  C     -356.903    -129.665    -380.619
  C     -357.122    -129.269    -381.928
  C     -356.055    -128.620    -382.576
  N     -356.103    -128.208    -383.887
  N     -358.388    -129.627    -382.342
  C     -358.928    -130.227    -381.299
  N     -358.060    -130.293    -380.242
  O     -362.030    -135.471    -379.365
  O     -363.437    -133.358    -379.083
  H     -359.988    -128.610    -378.723
  H     -362.785    -135.793    -378.840
  H     -353.918    -128.630    -380.081
  H     -359.935    -130.620    -381.252
  H     -357.579    -130.387    -378.233
  H     -360.469    -130.734    -379.270
  H     -360.946    -131.826    -377.157
  H     -358.537    -133.279    -377.164
  H     -359.317    -134.531    -379.188
  H     -355.257    -127.882    -384.320
  H     -356.878    -128.523    -384.464
  H     -360.545    -134.415    -377.911
  P     -360.124    -130.657    -374.983
  C     -360.258    -128.361    -373.779
  O     -360.065    -129.060    -374.997
  O     -359.262    -131.058    -373.692
  O     -361.489    -131.265    -374.944
  H     -359.849    -131.209    -372.930
  H     -359.651    -127.455    -373.794
  H     -359.969    -128.971    -372.914
  H     -361.311    -128.084    -373.689
  H     -363.447    -133.448    -383.091
  H     -363.148    -132.218    -381.887
  H     -364.401    -133.408    -381.627

 3  4  5  6  7  8  9  10  11  12  22  25  29  30  31  32 0
 6-311+G(2d,p)
 ****
 33  36  37 0
 6-311+G(2d,p)
 ****
 1  2  13  14  15  16  17  18  19  20  21  23  24  26 0
 3-21G
 ****
 27  28  34  35  38  39  40  41  42  43  44  45  46  47  48 0
 3-21G
 ****


