%nproc=1
%NoSave
%Mem=1900MB
#P OB98/GEN NMR

erre ene a

0 1
  C      120.806    -297.607     185.635
  O      120.891    -297.578     184.223
  H      120.015    -298.303     185.924
  H      120.553    -296.611     186.008
  H      121.749    -297.943     186.075
  P      122.192    -296.883     183.591
  C      123.521    -298.951     182.763
  O      123.392    -297.937     183.747
  C      124.976    -299.082     182.324
  O      125.163    -300.285     181.547
  C      125.477    -297.931     181.456
  O      125.891    -296.823     182.248
  C      126.665    -298.587     180.775
  O      127.779    -298.649     181.694
  C      126.133    -300.000     180.501
  N      126.884    -300.631     175.524
  C      127.802    -300.435     176.540
  N      129.100    -300.391     176.178
  N      127.473    -300.288     177.798
  C      126.136    -300.329     178.010
  C      125.131    -300.511     177.087
  C      125.509    -300.690     175.704
  O      124.736    -300.879     174.766
  N      123.895    -300.494     177.677
  C      124.151    -300.278     178.951
  N      125.494    -300.168     179.206
  O      122.542    -295.746     184.666
  O      122.006    -296.303     182.230
  H      128.004    -297.729     181.931
  H      122.239    -294.884     184.322
  H      127.189    -300.729     174.571
  H      123.401    -300.202     179.728
  H      126.920    -300.760     180.568
  H      127.008    -298.032     179.901
  H      129.421    -300.475     175.226
  H      124.736    -297.637     180.704
  H      129.789    -300.252     176.907
  H      125.592    -299.180     183.227
  H      122.901    -298.690     181.898
  H      123.171    -299.901     183.183
  P      126.145    -295.420     181.514
  C      123.630    -294.925     181.122
  O      124.899    -295.170     180.533
  O      127.348    -295.763     180.513
  O      126.495    -294.284     182.414
  H      128.162    -295.303     180.798
  H      122.902    -294.778     180.352
  H      123.684    -294.049     181.734
  H      123.348    -295.764     181.724

 6  7  8  9  10  11  12  13  14  15  26  29  33  34 0
 6-311+G(2d,p)
 ****
 36  38  39  40  41 0
 6-311+G(2d,p)
 ****
 1  2  3  4  5  16  17  18  19  20  21  22  23  24  25 0
 3-21G
 ****
 27  28  30  31  32  35  37  42  43  44  45  46  47 0
 3-21G
 ****
 48  49 0
 3-21G
 ****


