%nproc=1
%NoSave
%Mem=1900MB
#P OB98/GEN NMR

erre ene a

0 1
  C       73.500    -393.659    -245.746
  O       73.871    -392.847    -244.652
  H       73.468    -394.702    -245.409
  H       74.235    -393.574    -246.546
  H       72.505    -393.385    -246.117
  P       73.855    -391.251    -244.831
  C       75.983    -390.649    -243.498
  O       74.563    -390.617    -243.535
  C       76.488    -390.616    -242.051
  O       75.616    -389.753    -241.274
  C       76.510    -391.991    -241.370
  O       77.653    -392.078    -240.518
  C       75.244    -391.994    -240.538
  O       75.336    -392.865    -239.411
  C       75.118    -390.523    -240.154
  N       71.054    -391.734    -237.403
  C       72.321    -392.258    -237.388
  N       72.551    -393.275    -236.527
  N       73.300    -391.838    -238.152
  C       72.941    -390.792    -238.950
  C       71.707    -390.182    -239.058
  C       70.635    -390.680    -238.218
  O       69.484    -390.263    -238.203
  N       71.735    -389.180    -239.995
  C       72.974    -389.182    -240.454
  N       73.738    -390.160    -239.865
  O       72.513    -390.668    -245.159
  O       74.918    -390.973    -245.994
  H       75.379    -393.780    -239.763
  H       74.469    -390.753    -246.836
  H       70.337    -392.102    -236.802
  H       73.362    -388.516    -241.205
  H       75.711    -390.267    -239.266
  H       74.394    -392.319    -241.152
  H       71.851    -393.638    -235.892
  H       76.526    -392.807    -242.096
  H       73.488    -393.663    -236.471
  H       77.485    -390.158    -242.042
  H       76.364    -389.777    -244.042
  H       76.335    -391.562    -244.000
  P       79.043    -392.614    -241.126
  C       79.621    -393.950    -239.012
  O       80.045    -392.944    -239.920
  O       79.623    -391.784    -242.231
  O       78.653    -394.081    -241.664
  H       79.169    -394.268    -242.478
  H       80.365    -394.083    -238.255
  H       79.480    -394.870    -239.540
  H       78.698    -393.654    -238.558

 6  7  8  9  10  11  12  13  14  15  26  29  33  34 0
 6-311+G(2d,p)
 ****
 36  38  39  40  41 0
 6-311+G(2d,p)
 ****
 1  2  3  4  5  16  17  18  19  20  21  22  23  24  25 0
 3-21G
 ****
 27  28  30  31  32  35  37  42  43  44  45  46  47 0
 3-21G
 ****
 48  49 0
 3-21G
 ****


