%nproc=1
%NoSave
%Mem=1900MB
#P OB98/GEN NMR

erre ene a

0 1
  C      517.987    -161.760    -509.789
  O      518.277    -162.177    -511.123
  P      517.388    -161.807    -512.394
  C      516.715    -164.311    -512.850
  O      516.310    -162.968    -512.597
  C      515.806    -165.025    -513.837
  O      516.212    -164.742    -515.197
  C      515.936    -166.562    -513.675
  O      515.198    -167.230    -512.668
  C      515.751    -167.131    -515.083
  O      514.397    -167.518    -515.323
  C      516.157    -165.962    -515.985
  N      518.635    -168.570    -519.606
  C      517.347    -168.723    -519.166
  N      516.624    -169.733    -519.711
  N      516.794    -167.960    -518.245
  C      517.649    -167.053    -517.717
  C      518.965    -166.816    -518.054
  C      519.551    -167.630    -519.125
  O      520.680    -167.526    -519.568
  N      519.522    -165.816    -517.279
  C      518.550    -165.479    -516.468
  N      517.403    -166.201    -516.678
  O      518.154    -161.378    -513.611
  O      516.511    -160.548    -511.887
  H      514.236    -167.441    -516.292
  H      516.364    -159.972    -512.687
  H      518.996    -169.173    -520.333
  H      518.633    -164.731    -515.692
  H      515.397    -165.789    -516.759
  H      516.374    -168.017    -515.228
  H      517.017    -170.404    -520.349
  H      516.988    -166.771    -513.414
  H      515.764    -169.979    -519.243
  H      514.769    -164.698    -513.757
  H      516.707    -164.822    -511.877
  H      517.752    -164.326    -513.206
  P      515.776    -167.792    -511.275
  C      516.092    -170.115    -512.334
  O      516.710    -169.048    -511.593
  O      514.498    -168.447    -510.571
  O      516.406    -166.753    -510.396
  H      514.671    -168.580    -509.615
  H      516.693    -171.022    -512.222
  H      516.068    -169.844    -513.373
  H      515.078    -170.291    -511.952
  H      518.735    -162.140    -509.126
  H      517.028    -162.136    -509.498
  H      517.980    -160.691    -509.743

 3  4  5  6  7  8  9  10  11  12  23  26  30  31 0
 6-311+G(2d,p)
 ****
 33  35  36  37  38 0
 6-311+G(2d,p)
 ****
 1  2  13  14  15  16  17  18  19  20  21  22  24  25 0
 3-21G
 ****
 27  28  29  32  34  39  40  41  42  43  44  45  46  47  48  49 0
 3-21G
 ****


