%nproc=1
%NoSave
%Mem=1900MB
#P OB98/GEN NMR

erre ene a

0 1
  C      828.705    -205.154    -499.325
  O      829.463    -204.066    -499.814
  H      828.889    -205.287    -498.253
  H      827.642    -204.938    -499.469
  H      828.950    -206.070    -499.864
  P      831.063    -204.192    -499.704
  C      831.379    -201.617    -499.878
  O      831.569    -202.794    -499.098
  C      831.430    -200.384    -498.972
  O      830.367    -200.429    -498.003
  C      832.719    -200.265    -498.161
  O      833.781    -199.704    -498.923
  C      832.269    -199.314    -497.064
  O      832.226    -197.965    -497.578
  C      830.853    -199.826    -496.768
  N      830.926    -200.478    -491.692
  C      831.031    -199.383    -492.470
  N      830.997    -199.288    -493.806
  C      830.853    -200.498    -494.369
  C      830.754    -201.718    -493.714
  C      830.788    -201.686    -492.304
  N      830.702    -202.817    -491.524
  N      830.659    -202.760    -494.618
  C      830.665    -202.164    -495.803
  N      830.805    -200.799    -495.706
  O      831.554    -204.128    -501.234
  O      831.572    -205.404    -498.993
  H      831.840    -198.020    -498.476
  H      832.447    -204.505    -501.310
  H      831.135    -198.434    -491.923
  H      830.590    -202.678    -496.752
  H      830.161    -199.009    -496.506
  H      832.938    -199.302    -496.199
  H      833.009    -201.226    -497.704
  H      831.280    -199.493    -499.598
  H      830.400    -201.661    -500.369
  H      830.918    -202.703    -490.542
  H      830.748    -203.714    -491.967
  H      832.161    -201.559    -500.644
  P      835.252    -200.324    -498.696
  C      836.113    -198.630    -500.483
  O      836.287    -199.193    -499.179
  O      835.356    -201.441    -499.850
  O      835.495    -200.896    -497.335
  H      835.967    -202.145    -499.590
  H      836.872    -197.897    -500.659
  H      835.150    -198.168    -500.546
  H      836.187    -199.404    -501.218

 6  7  8  9  10  11  12  13  14  15  25  28  32  33  34  35 0
 6-311+G(2d,p)
 ****
 36  39  40 0
 6-311+G(2d,p)
 ****
 1  2  3  4  5  16  17  18  19  20  21  22  23  24 0
 3-21G
 ****
 26  27  29  30  31  37  38  41  42  43  44  45  46  47 0
 3-21G
 ****
 48 0
 3-21G
 ****


