%nproc=1
%NoSave
%Mem=1900MB
#P OB98/GEN NMR

erre ene a

0 1
  C     -450.967    -461.088      76.423
  O     -450.175    -462.220      76.049
  P     -450.747    -463.656      76.470
  C     -448.706    -464.920      77.462
  O     -449.555    -464.726      76.341
  C     -447.696    -466.033      77.193
  O     -448.319    -467.229      76.666
  C     -446.623    -465.652      76.183
  O     -445.631    -464.862      76.809
  C     -446.111    -467.015      75.733
  O     -445.122    -467.524      76.648
  C     -447.381    -467.873      75.768
  N     -447.406    -470.732      71.575
  C     -446.508    -470.711      72.630
  N     -445.490    -471.587      72.565
  N     -446.605    -469.900      73.648
  C     -447.678    -469.072      73.585
  C     -448.649    -469.012      72.608
  C     -448.522    -469.915      71.476
  O     -449.299    -469.991      70.529
  N     -449.612    -468.092      72.912
  C     -449.155    -467.500      74.004
  N     -448.020    -468.105      74.488
  O     -451.731    -464.029      75.265
  O     -451.465    -463.649      77.780
  H     -444.254    -467.150      76.412
  H     -452.660    -463.995      75.572
  H     -447.266    -471.364      70.808
  H     -449.626    -466.661      74.494
  H     -447.176    -468.869      76.191
  H     -445.633    -466.960      74.751
  H     -445.348    -472.250      71.809
  H     -447.077    -465.115      75.335
  H     -444.826    -471.598      73.335
  H     -447.229    -466.305      78.151
  H     -449.299    -465.171      78.346
  H     -448.193    -463.974      77.687
  P     -444.990    -463.648      75.981
  C     -442.669    -464.018      77.075
  O     -443.715    -463.118      76.796
  O     -446.068    -462.480      76.137
  O     -444.741    -463.959      74.534
  H     -446.218    -462.055      75.279
  H     -441.731    -463.467      77.141
  H     -442.571    -464.796      76.309
  H     -442.848    -464.506      78.051
  H     -450.487    -460.191      76.090
  H     -451.072    -461.062      77.487
  H     -451.934    -461.164      75.971

 3  4  5  6  7  8  9  10  11  12  23  26  30  31 0
 6-311+G(2d,p)
 ****
 33  35  36  37  38 0
 6-311+G(2d,p)
 ****
 1  2  13  14  15  16  17  18  19  20  21  22  24  25 0
 3-21G
 ****
 27  28  29  32  34  39  40  41  42  43  44  45  46  47  48  49 0
 3-21G
 ****


