%nproc=1
%NoSave
%Mem=1900MB
#P OB98/GEN NMR

erre ene a

0 1
  C      134.900      41.647      40.491
  O      135.698      40.516      40.192
  H      134.534      42.075      39.553
  H      135.494      42.401      41.017
  H      134.043      41.349      41.102
  P      136.366      39.756      41.440
  C      137.547      40.665      43.557
  O      137.206      40.895      42.197
  C      138.711      41.560      43.978
  O      139.938      41.085      43.396
  C      138.570      43.016      43.551
  O      137.766      43.730      44.478
  C      140.021      43.475      43.605
  O      140.379      43.783      44.966
  C      140.789      42.229      43.131
  N      143.770      44.339      39.518
  C      143.520      44.699      40.799
  N      142.675      44.126      41.683
  C      142.059      43.065      41.133
  C      142.210      42.582      39.842
  C      143.119      43.264      39.013
  N      143.370      42.896      37.709
  N      141.411      41.479      39.630
  C      140.831      41.262      40.795
  N      141.160      42.216      41.727
  O      137.100      38.500      41.114
  O      135.095      39.571      42.399
  H      139.662      44.338      45.329
  H      134.541      40.372      42.390
  H      144.069      45.565      41.159
  H      140.182      40.424      41.020
  H      141.718      42.083      43.699
  H      140.198      44.377      43.017
  H      138.203      43.105      42.521
  H      138.817      41.482      45.069
  H      137.816      39.611      43.709
  H      143.883      43.551      37.135
  H      142.789      42.178      37.303
  H      136.660      40.884      44.164
  P      136.774      44.895      43.988
  C      137.141      47.230      42.976
  O      137.723      46.157      43.707
  O      135.615      45.139      44.889
  O      136.332      44.444      42.519
  H      135.536      44.939      42.240
  H      137.863      48.009      42.851
  H      136.296      47.610      43.512
  H      136.826      46.878      42.016

 6  7  8  9  10  11  12  13  14  15  25  28  32  33  34  35 0
 6-311+G(2d,p)
 ****
 36  39  40 0
 6-311+G(2d,p)
 ****
 1  2  3  4  5  16  17  18  19  20  21  22  23  24 0
 3-21G
 ****
 26  27  29  30  31  37  38  41  42  43  44  45  46  47 0
 3-21G
 ****
 48 0
 3-21G
 ****


