%nproc=1
%NoSave
%Mem=1900MB
#P OB98/GEN NMR

erre ene a

0 1
  C     -138.521    -119.844    -259.070
  O     -138.616    -119.999    -257.651
  P     -140.044    -119.718    -256.973
  C     -141.162    -122.087    -256.886
  O     -140.434    -121.074    -256.210
  C     -142.458    -122.392    -256.133
  O     -143.393    -123.091    -256.990
  C     -142.273    -123.286    -254.916
  O     -141.690    -122.577    -253.836
  C     -143.708    -123.750    -254.683
  O     -144.448    -122.740    -253.982
  C     -144.237    -123.889    -256.124
  N     -144.311    -125.273    -256.576
  C     -145.588    -125.767    -256.816
  O     -146.609    -125.101    -256.646
  N     -145.657    -127.063    -257.249
  C     -144.598    -127.904    -257.427
  O     -144.723    -129.056    -257.827
  C     -143.278    -127.345    -257.109
  C     -143.191    -126.073    -256.705
  O     -140.997    -119.698    -258.258
  O     -140.067    -118.477    -256.149
  H     -140.720    -120.329    -258.947
  H     -144.042    -122.666    -253.095
  H     -146.575    -127.436    -257.444
  H     -142.416    -127.992    -257.216
  H     -142.226    -125.644    -256.463
  H     -145.243    -123.455    -256.202
  H     -143.758    -124.666    -254.089
  H     -141.645    -124.146    -255.180
  H     -142.911    -121.437    -255.838
  H     -140.561    -123.001    -256.949
  H     -141.368    -121.754    -257.907
  P     -140.376    -123.222    -253.174
  C     -138.345    -122.621    -254.706
  O     -139.146    -122.283    -253.598
  O     -140.189    -124.536    -254.069
  O     -140.509    -123.485    -251.709
  H     -140.308    -124.368    -255.017
  H     -137.813    -121.725    -255.043
  H     -138.946    -123.004    -255.536
  H     -137.608    -123.374    -254.409
  H     -137.522    -120.061    -259.386
  H     -138.769    -118.838    -259.336
  H     -139.201    -120.518    -259.549

 3  4  5  6  7  8  9  10  11  12  13  24  28  29  30  31  32 0
 6-311+G(2d,p)
 ****
 33  34 0
 6-311+G(2d,p)
 ****
 1  2  14  15  16  17  18  19  20  21  22  23  25  26  27 0
 3-21G
 ****
 35  36  37  38  39  40  41  42  43  44  45 0
 3-21G
 ****


