%nproc=1
%NoSave
%Mem=1900MB
#P OB98/GEN NMR

erre ene a

0 1
  C      110.858      29.905      54.162
  O      111.710      29.426      55.183
  H      110.494      29.066      53.565
  H      110.003      30.405      54.623
  H      111.381      30.620      53.521
  P      113.170      28.925      54.745
  C      112.552      26.484      55.375
  O      113.447      27.570      55.565
  C      112.838      25.374      56.384
  O      114.133      24.787      56.071
  C      112.876      25.844      57.847
  O      112.274      24.835      58.662
  C      114.362      25.904      58.153
  O      114.644      25.755      59.540
  C      114.890      24.761      57.293
  N      119.517      23.852      59.195
  C      118.301      23.358      59.507
  N      117.119      23.614      58.910
  C      117.287      24.424      57.851
  C      118.463      25.002      57.408
  C      119.622      24.699      58.144
  N      120.854      25.251      57.878
  N      118.218      25.821      56.322
  C      116.915      25.757      56.133
  N      116.310      24.928      57.034
  O      114.127      29.996      55.457
  O      113.411      28.849      53.276
  H      115.584      25.970      59.696
  H      114.251      30.763      54.869
  H      118.269      22.675      60.352
  H      116.361      26.309      55.387
  H      114.754      23.780      57.764
  H      114.766      26.867      57.820
  H      112.376      26.804      58.016
  H      112.089      24.584      56.253
  H      112.683      26.086      54.363
  H      121.603      25.059      58.525
  H      120.926      25.967      57.169
  H      111.523      26.841      55.482
  P      110.782      25.102      59.186
  C      111.443      25.192      61.703
  O      110.666      24.564      60.689
  O      109.907      24.055      58.350
  O      110.310      26.504      58.977
  H      109.022      24.421      58.172
  H      111.252      24.718      62.643
  H      111.179      26.227      61.765
  H      112.482      25.103      61.463

 6  7  8  9  10  11  12  13  14  15  25  28  32  33  34  35 0
 6-311+G(2d,p)
 ****
 36  39  40 0
 6-311+G(2d,p)
 ****
 1  2  3  4  5  16  17  18  19  20  21  22  23  24 0
 3-21G
 ****
 26  27  29  30  31  37  38  41  42  43  44  45  46  47 0
 3-21G
 ****
 48 0
 3-21G
 ****


