%nproc=1
%NoSave
%Mem=1900MB
#P OB98/GEN NMR

erre ene a

0 1
  C      296.833     831.390    -115.963
  O      296.287     832.300    -116.896
  H      296.170     830.523    -115.895
  H      296.897     831.852    -114.972
  H      297.817     831.052    -116.286
  P      297.038     833.691    -117.163
  C      298.533     832.747    -119.032
  O      298.501     833.289    -117.712
  C      299.908     832.935    -119.666
  O      300.181     834.350    -119.834
  C      301.063     832.342    -118.839
  O      301.931     831.585    -119.684
  C      301.796     833.568    -118.321
  O      303.162     833.312    -118.005
  C      301.553     834.555    -119.463
  N      301.841     835.927    -119.074
  C      302.984     836.509    -119.632
  O      303.689     835.860    -120.422
  N      303.331     837.780    -119.259
  C      302.633     838.405    -118.358
  N      303.055     839.649    -118.012
  C      301.432     837.828    -117.731
  C      301.090     836.593    -118.140
  O      297.037     834.636    -116.009
  O      296.328     834.294    -118.469
  H      303.207     832.485    -117.465
  H      296.476     835.267    -118.491
  H      300.878     838.370    -116.981
  H      300.221     836.090    -117.728
  H      302.186     834.302    -120.341
  H      301.309     833.933    -117.410
  H      300.716     831.709    -118.019
  H      299.887     832.512    -120.676
  H      303.888     840.000    -118.459
  H      297.761     833.242    -119.635
  H      302.600     840.216    -117.310
  H      298.311     831.675    -118.971
  P      301.960     830.001    -119.423
  C      300.233     829.093    -121.139
  O      300.510     829.404    -119.783
  O      302.043     829.890    -117.823
  O      303.116     829.313    -120.091
  H      302.937     829.556    -117.576
  H      299.238     828.709    -121.221
  H      300.929     828.358    -121.486
  H      300.323     829.978    -121.734

 6  7  8  9  10  11  12  13  14  15  16  26  30  31  32  33  35 0
 6-311+G(2d,p)
 ****
 37  38 0
 6-311+G(2d,p)
 ****
 1  2  3  4  5  17  18  19  20  21  22  23  24  25 0
 3-21G
 ****
 27  28  29  34  36  39  40  41  42  43  44  45  46 0
 3-21G
 ****


