%nproc=1
%NoSave
%Mem=1900MB
#P OB98/GEN NMR

erre ene a

0 1
  C       11.168     103.765      48.480
  O        9.756     103.642      48.469
  P        8.945     103.627      47.093
  C        7.374     105.594      47.840
  O        8.269     105.058      46.890
  C        7.826     107.015      48.202
  O        9.226     107.019      48.545
  C        7.622     107.981      47.037
  O        6.380     108.655      47.158
  C        8.823     108.900      47.157
  O        8.585     109.912      48.153
  C        9.918     107.920      47.640
  N       10.617     107.105      46.629
  C       12.007     107.030      46.645
  O       12.710     107.586      47.483
  N       12.574     106.299      45.631
  C       11.896     105.621      44.661
  O       12.406     105.182      43.637
  C       10.447     105.516      44.858
  C        9.882     106.268      45.801
  O        7.702     102.674      47.417
  O        9.712     103.161      45.900
  H        8.030     110.597      47.738
  H        7.863     101.772      47.081
  H       13.585     106.356      45.556
  H        9.884     104.873      44.195
  H        8.804     106.236      45.941
  H       10.687     108.446      48.218
  H        9.009     109.429      46.225
  H        7.686     107.444      46.083
  H        7.262     107.352      49.080
  H        7.351     104.961      48.733
  H        6.359     105.612      47.430
  P        5.126     108.159      46.298
  C        4.061     110.449      46.731
  O        4.431     109.498      45.754
  O        4.214     107.197      46.984
  O        5.804     107.511      44.999
  H        5.861     106.540      45.103
  H        3.771     111.375      46.228
  H        4.899     110.656      47.403
  H        3.208     110.076      47.305
  H       11.519     103.755      49.491
  H       11.449     104.686      48.014
  H       11.601     102.947      47.943

 3  4  5  6  7  8  9  10  11  12  13  23  28  29  30  31  32 0
 6-311+G(2d,p)
 ****
 33  34 0
 6-311+G(2d,p)
 ****
 1  2  14  15  16  17  18  19  20  21  22  24  25  26  27 0
 3-21G
 ****
 35  36  37  38  39  40  41  42  43  44  45 0
 3-21G
 ****


