%nproc=1
%NoSave
%Mem=1900MB
#P OB98/GEN NMR

erre ene a

0 1
  C     -103.840     724.422     230.381
  O     -104.227     723.351     231.217
  H     -102.761     724.362     230.208
  H     -104.062     725.372     230.872
  H     -104.355     724.368     229.419
  P     -105.802     723.134     231.429
  C     -105.735     720.617     232.053
  O     -105.960     721.946     232.497
  C     -105.194     719.765     233.197
  O     -103.793     720.051     233.419
  C     -105.895     719.995     234.535
  O     -107.102     719.252     234.631
  C     -104.839     719.458     235.492
  O     -104.871     718.014     235.489
  C     -103.543     719.959     234.852
  N     -102.858     722.847     238.964
  C     -103.344     721.553     238.857
  N     -103.701     720.952     240.006
  N     -103.466     720.916     237.722
  C     -103.073     721.649     236.650
  C     -102.574     722.936     236.628
  C     -102.436     723.626     237.891
  O     -101.991     724.762     238.044
  N     -102.279     723.338     235.357
  C     -102.611     722.307     234.597
  N     -103.106     721.260     235.337
  O     -106.272     722.461     230.056
  O     -106.585     724.374     231.722
  H     -105.807     717.754     235.515
  H     -107.166     722.786     229.832
  H     -102.796     723.297     239.858
  H     -102.513     722.270     233.525
  H     -102.705     719.269     234.998
  H     -105.006     719.780     236.522
  H     -103.681     721.405     240.905
  H     -106.051     721.060     234.725
  H     -104.030     719.995     239.950
  H     -105.269     718.713     232.896
  H     -105.006     720.632     231.235
  H     -106.676     720.199     231.685
  P     -107.980     719.438     235.964
  C     -110.111     719.464     234.484
  O     -109.443     718.884     235.598
  O     -108.185     721.024     236.038
  O     -107.363     718.895     237.208
  H     -108.384     721.293     236.956
  H     -111.067     719.000     234.360
  H     -109.526     719.316     233.601
  H     -110.242     720.512     234.653

 6  7  8  9  10  11  12  13  14  15  26  29  33  34 0
 6-311+G(2d,p)
 ****
 36  38  39  40  41 0
 6-311+G(2d,p)
 ****
 1  2  3  4  5  16  17  18  19  20  21  22  23  24  25 0
 3-21G
 ****
 27  28  30  31  32  35  37  42  43  44  45  46  47 0
 3-21G
 ****
 48  49 0
 3-21G
 ****


