%nproc=1
%NoSave
%Mem=1900MB
#P OB98/GEN NMR

erre ene a

0 1
  C       53.048    -679.260      -6.010
  O       54.278    -679.702      -6.550
  H       52.969    -678.175      -6.094
  H       52.230    -679.713      -6.586
  H       52.960    -679.569      -4.968
  P       55.608    -679.126      -5.851
  C       56.883    -681.383      -5.875
  O       56.834    -680.048      -6.344
  C       57.887    -682.193      -6.675
  O       57.342    -682.416      -8.010
  C       59.269    -681.520      -6.834
  O       60.323    -682.426      -6.479
  C       59.361    -681.205      -8.326
  O       60.686    -681.309      -8.823
  C       58.435    -682.236      -8.935
  N       59.190    -682.617     -13.968
  C       59.568    -683.401     -12.947
  N       59.264    -683.308     -11.634
  C       58.427    -682.276     -11.436
  C       57.925    -681.383     -12.369
  C       58.364    -681.573     -13.699
  N       58.008    -680.718     -14.719
  N       57.108    -680.433     -11.779
  C       57.142    -680.716     -10.502
  N       57.934    -681.812     -10.232
  O       55.416    -679.546      -4.312
  O       55.799    -677.660      -5.998
  H       60.998    -682.223      -8.658
  H       55.395    -678.732      -3.768
  H       60.233    -684.230     -13.205
  H       56.654    -680.156      -9.710
  H       58.923    -683.210      -9.053
  H       58.999    -680.182      -8.506
  H       59.351    -680.603      -6.226
  H       58.004    -683.183      -6.216
  H       55.887    -681.839      -5.978
  H       58.463    -680.866     -15.623
  H       57.495    -679.885     -14.524
  H       57.155    -681.379      -4.810
  P       61.392    -681.888      -5.406
  C       62.224    -684.203      -4.555
  O       62.534    -682.999      -5.268
  O       60.581    -681.973      -4.029
  O       61.877    -680.486      -5.674
  H       60.575    -681.090      -3.584
  H       63.081    -684.844      -4.548
  H       61.409    -684.703      -5.036
  H       61.951    -683.961      -3.549

 6  7  8  9  10  11  12  13  14  15  25  28  32  33  34  35 0
 6-311+G(2d,p)
 ****
 36  39  40 0
 6-311+G(2d,p)
 ****
 1  2  3  4  5  16  17  18  19  20  21  22  23  24 0
 3-21G
 ****
 26  27  29  30  31  37  38  41  42  43  44  45  46  47  48 0
 3-21G
 ****


