%nproc=1
%NoSave
%Mem=1900MB
#P OB98/GEN NMR

erre ene a

0 1
  C      314.759    -106.075     -63.348
  O      314.531    -106.271     -61.947
  P      313.035    -106.093     -61.391
  C      312.739    -107.848     -59.495
  O      313.027    -106.500     -59.832
  C      313.409    -108.218     -58.161
  O      314.836    -108.401     -58.318
  C      313.259    -107.144     -57.089
  O      312.004    -107.246     -56.424
  C      314.380    -107.513     -56.137
  O      313.970    -108.616     -55.297
  C      315.486    -107.947     -57.098
  N      319.552    -105.428     -55.433
  C      318.841    -106.466     -54.848
  N      319.288    -106.903     -53.646
  N      317.790    -107.040     -55.393
  C      317.471    -106.506     -56.616
  C      318.093    -105.462     -57.293
  C      319.234    -104.843     -56.663
  O      319.897    -103.918     -57.120
  N      317.475    -105.226     -58.480
  C      316.487    -106.093     -58.529
  N      316.430    -106.895     -57.409
  O      312.259    -107.321     -62.081
  O      312.397    -104.787     -61.721
  H      313.999    -109.410     -55.860
  H      311.315    -107.094     -62.192
  H      320.344    -105.028     -54.962
  H      315.795    -106.201     -59.357
  H      316.078    -108.796     -56.697
  H      314.658    -106.682     -55.463
  H      320.123    -106.546     -53.196
  H      313.420    -106.130     -57.501
  H      318.810    -107.689     -53.224
  H      312.965    -109.159     -57.789
  H      313.091    -108.534     -60.277
  H      311.652    -107.978     -59.440
  P      310.840    -106.202     -56.821
  C      308.859    -107.836     -56.397
  O      309.543    -106.645     -56.012
  O      310.509    -106.624     -58.345
  O      311.227    -104.759     -56.715
  H      310.242    -105.817     -58.847
  H      308.112    -108.064     -55.634
  H      309.561    -108.681     -56.454
  H      308.374    -107.701     -57.361
  H      315.796    -106.227     -63.565
  H      314.480    -105.078     -63.619
  H      314.172    -106.774     -63.906

 3  4  5  6  7  8  9  10  11  12  23  26  30  31 0
 6-311+G(2d,p)
 ****
 33  35  36  37  38 0
 6-311+G(2d,p)
 ****
 1  2  13  14  15  16  17  18  19  20  21  22  24  25 0
 3-21G
 ****
 27  28  29  32  34  39  40  41  42  43  44  45  46  47  48  49 0
 3-21G
 ****


