%nproc=1
%NoSave
%Mem=1900MB
#P OB98/GEN NMR

erre ene a

0 1
  C     -672.619     457.882     470.028
  O     -672.088     457.840     468.713
  P     -671.517     456.463     468.114
  C     -670.909     455.710     465.726
  O     -671.708     456.584     466.523
  C     -671.160     455.962     464.235
  O     -672.551     455.729     463.905
  C     -670.859     457.382     463.776
  O     -669.464     457.585     463.642
  C     -671.634     457.446     462.477
  O     -670.895     456.867     461.399
  C     -672.888     456.591     462.800
  N     -674.064     457.409     463.091
  C     -674.514     458.215     462.044
  O     -673.921     458.226     460.964
  N     -675.620     459.012     462.250
  C     -676.182     459.034     463.419
  N     -677.268     459.854     463.570
  C     -675.714     458.222     464.563
  C     -674.659     457.451     464.321
  O     -672.054     455.219     468.738
  O     -669.935     456.630     468.292
  H     -671.456     456.972     460.597
  H     -669.658     456.512     469.239
  H     -676.216     458.266     465.517
  H     -674.240     456.818     465.113
  H     -673.133     455.941     461.953
  H     -671.879     458.481     462.189
  H     -671.291     458.108     464.492
  H     -670.549     455.248     463.662
  H     -677.536     460.410     462.771
  H     -671.183     454.679     465.962
  H     -677.755     459.967     464.444
  H     -669.854     455.857     465.974
  P     -668.863     459.066     463.624
  C     -666.482     460.036     463.516
  O     -667.302     458.962     463.982
  O     -669.634     460.081     464.417
  O     -668.859     459.449     462.067
  H     -669.198     460.365     461.969
  H     -665.544     460.019     464.086
  H     -666.972     460.988     463.650
  H     -666.265     459.880     462.463
  H     -672.947     458.876     470.248
  H     -671.863     457.593     470.727
  H     -673.447     457.209     470.100

 3  4  5  6  7  8  9  10  11  12  13  23  27  28  29  30  32 0
 6-311+G(2d,p)
 ****
 34  35 0
 6-311+G(2d,p)
 ****
 1  2  14  15  16  17  18  19  20  21  22  24  25  26 0
 3-21G
 ****
 31  33  36  37  38  39  40  41  42  43  44  45  46 0
 3-21G
 ****


