%nproc=1
%NoSave
%Mem=1900MB
#P OB98/GEN NMR

erre ene a

0 1
  C      238.318     395.123    -605.455
  O      238.596     396.403    -605.992
  H      237.947     395.252    -604.429
  H      239.221     394.508    -605.422
  H      237.546     394.624    -606.043
  P      239.394     396.480    -607.385
  C      237.545     397.931    -608.468
  O      238.268     396.697    -608.511
  C      238.093     398.928    -609.484
  O      238.230     398.297    -610.776
  C      237.184     400.124    -609.721
  O      237.099     401.009    -608.625
  C      237.667     400.642    -611.068
  O      238.767     401.528    -610.977
  C      238.111     399.333    -611.773
  N      237.196     398.948    -612.846
  C      237.572     399.333    -614.130
  O      238.592     399.980    -614.370
  N      236.714     398.987    -615.139
  C      235.511     398.354    -614.976
  O      234.761     398.113    -615.916
  C      235.157     397.994    -613.591
  C      236.000     398.309    -612.607
  O      240.318     395.331    -607.668
  O      240.131     397.895    -607.327
  H      238.489     402.279    -610.405
  H      240.853     397.946    -607.995
  H      236.974     399.249    -616.070
  H      234.201     397.497    -613.429
  H      235.754     398.048    -611.576
  H      239.111     399.452    -612.210
  H      236.875     401.172    -611.605
  H      236.169     399.747    -609.885
  H      239.090     399.242    -609.150
  H      237.657     398.339    -607.454
  H      236.479     397.734    -608.646
  P      235.836     401.089    -607.647
  C      237.220     400.389    -605.575
  O      236.108     400.115    -606.398
  O      234.486     401.078    -608.296
  O      236.035     402.546    -606.987
  H      235.152     402.927    -606.827
  H      237.272     399.662    -604.792
  H      237.117     401.365    -605.149
  H      238.115     400.348    -606.160

 6  7  8  9  10  11  12  13  14  15  16  26  31  32  33  34  35 0
 6-311+G(2d,p)
 ****
 36  37 0
 6-311+G(2d,p)
 ****
 1  2  3  4  5  17  18  19  20  21  22  23  24  25 0
 3-21G
 ****
 27  28  29  30  38  39  40  41  42  43  44  45 0
 3-21G
 ****


