%nproc=1
%NoSave
%Mem=1900MB
#P OB98/GEN NMR

erre ene a

0 1
  C     -269.240     141.036    -210.851
  O     -269.945     139.961    -210.268
  H     -268.177     140.946    -210.597
  H     -269.614     141.993    -210.471
  H     -269.342     141.010    -211.942
  P     -271.543     139.978    -210.444
  C     -273.372     141.187    -209.030
  O     -272.020     141.146    -209.448
  C     -273.516     142.123    -207.829
  O     -272.794     141.601    -206.689
  C     -272.953     143.522    -208.062
  O     -273.820     144.355    -208.813
  C     -272.823     144.002    -206.626
  O     -274.119     144.358    -206.112
  C     -272.284     142.727    -205.935
  N     -270.817     142.684    -205.870
  C     -270.214     143.184    -204.714
  O     -270.902     143.650    -203.801
  N     -268.837     143.185    -204.623
  C     -268.121     142.713    -205.601
  N     -266.774     142.750    -205.462
  C     -268.714     142.159    -206.835
  C     -270.039     142.172    -206.899
  O     -272.021     138.655    -209.672
  O     -272.037     140.082    -211.847
  H     -274.426     145.129    -206.632
  H     -273.006     138.635    -209.614
  H     -268.081     141.778    -207.628
  H     -270.555     141.784    -207.783
  H     -272.667     142.646    -204.910
  H     -272.181     144.883    -206.522
  H     -271.953     143.485    -208.509
  H     -274.580     142.158    -207.550
  H     -266.387     143.186    -204.636
  H     -273.680     140.175    -208.748
  H     -266.139     142.578    -206.235
  H     -274.011     141.541    -209.842
  P     -273.152     145.398    -209.830
  C     -272.832     147.986    -209.778
  O     -272.972     146.779    -209.030
  O     -274.353     145.739    -210.840
  O     -271.937     144.898    -210.552
  H     -274.022     145.819    -211.757
  H     -272.722     148.811    -209.106
  H     -273.701     148.133    -210.384
  H     -271.967     147.919    -210.405

 6  7  8  9  10  11  12  13  14  15  16  26  30  31  32  33  35 0
 6-311+G(2d,p)
 ****
 37  38 0
 6-311+G(2d,p)
 ****
 1  2  3  4  5  17  18  19  20  21  22  23  24  25 0
 3-21G
 ****
 27  28  29  34  36  39  40  41  42  43  44  45  46 0
 3-21G
 ****


