%nproc=1
%NoSave
%Mem=1900MB
#P OB98/GEN NMR

erre ene a

0 1
  C     -152.364    -151.256     -63.747
  O     -151.798    -152.158     -64.676
  H     -151.873    -151.393     -62.780
  H     -153.433    -151.458     -63.631
  H     -152.214    -150.225     -64.078
  P     -152.354    -152.089     -66.180
  C     -150.744    -150.201     -66.959
  O     -152.086    -150.591     -66.690
  C     -150.519    -150.135     -68.467
  O     -151.535    -149.300     -69.069
  C     -149.186    -149.515     -68.874
  O     -148.116    -150.435     -68.755
  C     -149.478    -149.105     -70.312
  O     -149.309    -150.203     -71.218
  C     -150.957    -148.701     -70.250
  N     -150.934    -144.462     -73.082
  C     -150.794    -145.766     -73.406
  N     -150.832    -146.841     -72.590
  C     -151.047    -146.461     -71.320
  C     -151.200    -145.173     -70.837
  C     -151.140    -144.136     -71.783
  N     -151.244    -142.807     -71.448
  N     -151.357    -145.184     -69.466
  C     -151.309    -146.457     -69.126
  N     -151.128    -147.263     -70.214
  O     -153.943    -152.141     -65.975
  O     -151.871    -153.169     -67.089
  H     -149.837    -150.944     -70.860
  H     -154.254    -153.061     -66.064
  H     -150.628    -145.974     -74.460
  H     -151.390    -146.839     -68.115
  H     -151.524    -149.074     -71.111
  H     -148.809    -148.308     -70.641
  H     -148.991    -148.614     -68.281
  H     -150.620    -151.146     -68.880
  H     -150.060    -150.938     -66.525
  H     -150.560    -149.226     -66.497
  H     -151.169    -142.117     -72.177
  H     -151.292    -142.549     -70.471
  P     -146.661    -149.872     -68.397
  C     -147.141    -150.003     -65.844
  O     -146.743    -149.198     -66.944
  O     -146.496    -148.625     -69.387
  O     -145.553    -150.862     -68.557
  H     -145.951    -148.871     -70.156
  H     -147.146    -149.411     -64.952
  H     -146.454    -150.815     -65.729
  H     -148.123    -150.389     -66.021

 6  7  8  9  10  11  12  13  14  15  25  28  32  33  34  35 0
 6-311+G(2d,p)
 ****
 36  37  40 0
 6-311+G(2d,p)
 ****
 1  2  3  4  5  16  17  18  19  20  21  22  23  24 0
 3-21G
 ****
 26  27  29  30  31  38  39 41  42  43  44  45  46  47  48 0
 3-21G
 ****


