%nproc=1
%NoSave
%Mem=1900MB
#P OB98/GEN NMR

erre ene a

0 1
  C       68.276    -603.483    -178.506
  O       67.042    -603.399    -179.203
  P       66.793    -604.262    -180.535
  C       64.825    -602.769    -181.236
  O       65.229    -604.077    -180.865
  C       63.293    -602.658    -181.154
  O       62.724    -603.558    -182.135
  C       62.662    -603.047    -179.818
  O       62.639    -602.014    -178.845
  C       61.231    -603.346    -180.269
  O       60.504    -602.114    -180.424
  C       61.449    -604.032    -181.609
  N       60.227    -608.402    -183.980
  C       60.117    -607.107    -184.353
  N       60.447    -606.002    -183.654
  C       60.999    -606.326    -182.466
  C       61.180    -607.603    -181.948
  C       60.769    -608.681    -182.765
  N       60.905    -609.997    -182.396
  N       61.748    -607.534    -180.699
  C       61.904    -606.240    -180.467
  N       61.471    -605.480    -181.517
  O       67.283    -605.669    -180.466
  O       67.500    -603.415    -181.690
  H       60.507    -601.653    -179.561
  H       67.640    -603.982    -182.481
  H       59.699    -606.943    -185.345
  H       62.327    -605.825    -179.562
  H       60.677    -603.749    -182.353
  H       60.673    -603.939    -179.528
  H       63.116    -603.972    -179.418
  H       63.015    -601.630    -181.430
  H       65.140    -602.583    -182.260
  H       60.718    -610.694    -183.083
  H       61.459    -610.199    -181.562
  H       65.301    -602.021    -180.583
  P       63.556    -602.229    -177.536
  C       62.409    -600.093    -176.530
  O       63.609    -600.796    -176.799
  O       64.878    -602.864    -177.791
  O       62.606    -603.092    -176.578
  H       61.815    -602.641    -176.251
  H       62.649    -599.234    -175.893
  H       61.693    -600.731    -175.991
  H       61.962    -599.738    -177.447
  H       68.248    -602.839    -177.652
  H       69.073    -603.182    -179.154
  H       68.437    -604.491    -178.187

 3  4  5  6  7  8  9  10  11  12  22  25  29  30  31  32 0
 6-311+G(2d,p)
 ****
 33  36  37 0
 6-311+G(2d,p)
 ****
 1  2  13  14  15  16  17  18  19  20  21  23  24  26 0
 3-21G
 ****
 27  28  34  35  38  39  40  41  42  43  44  45  46  47  48 0
 3-21G
 ****


