%nproc=1
%NoSave
%Mem=1900MB
#P OB98/GEN NMR

erre ene a

0 1
  C       35.862     -26.769      11.013
  O       36.409     -26.614      12.303
  H       36.365     -27.605      10.519
  H       36.035     -25.860      10.429
  H       34.790     -26.979      11.055
  P       35.586     -25.780      13.393
  C       37.121     -23.803      12.769
  O       36.480     -24.516      13.818
  C       37.723     -22.485      13.258
  O       38.262     -21.738      12.145
  C       36.680     -21.577      13.910
  O       36.417     -21.840      15.276
  C       37.310     -20.199      13.730
  O       38.232     -19.914      14.794
  C       38.053     -20.338      12.399
  N       37.989     -16.736       8.778
  C       38.921     -16.950       9.774
  N       39.931     -16.056       9.849
  N       38.851     -17.940      10.625
  C       37.737     -18.695      10.490
  C       36.737     -18.572       9.551
  C       36.852     -17.505       8.578
  O       36.051     -17.267       7.680
  N       35.764     -19.527       9.722
  C       36.137     -20.177      10.806
  N       37.341     -19.726      11.293
  O       35.652     -26.704      14.702
  O       34.168     -25.468      13.024
  H       37.722     -19.621      15.571
  H       34.882     -26.527      15.272
  H       38.108     -15.975       8.133
  H       35.589     -20.994      11.263
  H       39.044     -19.870      12.443
  H       36.557     -19.406      13.742
  H       39.963     -15.216       9.293
  H       35.744     -21.604      13.344
  H       40.475     -16.022      10.714
  H       38.555     -22.699      13.938
  H       36.360     -23.607      12.011
  H       37.890     -24.424      12.303
  P       34.952     -22.287      15.739
  C       34.055     -19.880      15.323
  O       34.187     -20.963      16.217
  O       35.235     -23.077      17.101
  O       34.210     -23.125      14.755
  H       35.279     -24.037      16.931
  H       33.522     -19.085      15.802
  H       33.517     -20.198      14.455
  H       35.026     -19.535      15.034

 6  7  8  9  10  11  12  13  14  15  26  29  33  34 0
 6-311+G(2d,p)
 ****
 36  38  39  40  41 0
 6-311+G(2d,p)
 ****
 1  2  3  4  5  16  17  18  19  20  21  22  23  24  25 0
 3-21G
 ****
 27  28  30  31  32  35  37  42  43  44  45  46  47 0
 3-21G
 ****
 48  49 0
 3-21G
 ****


