%nproc=1
%NoSave
%Mem=1900MB
#P OB98/GEN NMR

erre ene a

0 1
  C       12.651     -36.883       9.093
  O       14.029     -37.193       8.842
  P       14.881     -36.534       7.653
  C       15.261     -33.989       7.361
  O       15.471     -35.135       8.178
  C       15.759     -32.723       8.063
  O       15.185     -32.625       9.388
  C       17.260     -32.660       8.303
  O       17.988     -32.407       7.115
  C       17.349     -31.546       9.344
  O       17.360     -30.252       8.725
  C       16.044     -31.737      10.141
  N       16.268     -32.242      11.485
  C       16.998     -31.422      12.350
  O       17.487     -30.368      11.944
  N       17.168     -31.827      13.651
  C       16.743     -32.993      14.024
  N       16.924     -33.333      15.329
  C       16.089     -33.945      13.106
  C       15.883     -33.508      11.865
  O       14.137     -36.424       6.363
  O       16.175     -37.462       7.495
  H       16.512     -37.399       6.582
  H       17.399     -29.595       9.447
  H       15.787     -34.925      13.448
  H       15.396     -34.139      11.129
  H       15.497     -30.789      10.200
  H       18.257     -31.621       9.951
  H       17.594     -33.604       8.752
  H       15.430     -31.856       7.475
  H       17.366     -32.653      15.933
  H       14.186     -33.890       7.174
  H       16.610     -34.207      15.726
  H       15.769     -34.132       6.402
  P       19.206     -33.396       6.786
  C       19.777     -34.873       4.730
  O       18.769     -34.315       5.549
  O       19.219     -34.407       8.028
  O       20.528     -32.717       6.627
  H       20.140     -34.610       8.276
  H       19.397     -35.799       4.289
  H       20.684     -35.097       5.299
  H       20.017     -34.173       3.926
  H       12.306     -37.446       9.935
  H       12.067     -37.134       8.232
  H       12.552     -35.838       9.299

 3  4  5  6  7  8  9  10  11  12  13  24  27  28  29  30  32 0
 6-311+G(2d,p)
 ****
 34  35 0
 6-311+G(2d,p)
 ****
 1  2  14  15  16  17  18  19  20  21  22  23  25  26 0
 3-21G
 ****
 31  33  36  37  38  39  40  41  42  43  44  45  46 0
 3-21G
 ****


