%nproc=1
%NoSave
%Mem=1900MB
#P OB98/GEN NMR

erre ene a

0 1
  C     -437.933      41.720     658.946
  O     -437.437      40.445     658.608
  H     -437.115      42.446     658.860
  H     -438.305      41.734     659.972
  H     -438.729      42.019     658.251
  P     -438.425      39.186     658.715
  C     -439.611      39.893     656.532
  O     -439.758      39.571     657.912
  C     -440.336      38.853     655.671
  O     -441.764      39.022     655.880
  C     -440.044      39.028     654.173
  O     -439.591      37.826     653.550
  C     -441.323      39.655     653.634
  O     -441.577      39.406     652.264
  C     -442.402      39.132     654.588
  N     -443.589      39.975     654.671
  C     -444.679      39.625     653.871
  O     -444.724      38.652     653.125
  N     -445.762      40.457     653.965
  C     -445.869      41.573     654.746
  O     -446.871      42.267     654.788
  C     -444.680      41.901     655.542
  C     -443.613      41.106     655.476
  O     -438.652      38.658     660.091
  O     -437.745      38.085     657.768
  H     -441.660      38.438     652.157
  H     -437.284      37.421     658.319
  H     -446.564      40.207     653.401
  H     -444.724      42.783     656.165
  H     -442.716      41.316     656.050
  H     -442.723      38.124     654.288
  H     -441.246      40.747     653.753
  H     -439.210      39.719     654.011
  H     -440.066      37.850     656.027
  H     -438.542      39.892     656.302
  H     -440.023      40.886     656.338
  P     -438.318      37.719     652.586
  C     -436.601      37.258     654.519
  O     -437.015      38.085     653.447
  O     -438.461      38.372     651.254
  O     -438.166      36.136     652.341
  H     -437.813      36.027     651.429
  H     -435.719      37.667     654.965
  H     -436.392      36.275     654.151
  H     -437.380      37.206     655.251

 6  7  8  9  10  11  12  13  14  15  16  26  31  32  33  34  35 0
 6-311+G(2d,p)
 ****
 36  37 0
 6-311+G(2d,p)
 ****
 1  2  3  4  5  17  18  19  20  21  22  23  24  25 0
 3-21G
 ****
 27  28  29  30  38  39  40  41  42  43  44  45 0
 3-21G
 ****


