%nproc=1
%NoSave
%Mem=1900MB
#P OB98/GEN NMR

erre ene a

0 1
  C      267.580    -145.172     -59.422
  O      268.870    -145.747     -59.384
  H      267.678    -144.105     -59.632
  H      267.091    -145.296     -58.453
  H      266.977    -145.634     -60.207
  P      268.950    -147.336     -59.177
  C      268.508    -148.025     -61.639
  O      269.449    -147.952     -60.576
  C      268.644    -149.348     -62.389
  O      267.516    -149.487     -63.306
  C      269.929    -149.475     -63.220
  O      270.350    -150.846     -63.181
  C      269.453    -149.166     -64.631
  O      270.326    -149.687     -65.630
  C      268.069    -149.814     -64.596
  N      267.784    -149.315     -69.594
  C      268.764    -149.885     -68.804
  N      269.837    -150.401     -69.441
  N      268.699    -149.941     -67.501
  C      267.556    -149.415     -66.998
  C      266.516    -148.818     -67.670
  C      266.612    -148.738     -69.113
  O      265.787    -148.229     -69.863
  N      265.548    -148.385     -66.797
  C      266.004    -148.720     -65.602
  N      267.218    -149.344     -65.674
  O      267.407    -147.758     -59.108
  O      269.707    -147.788     -57.975
  H      270.539    -150.614     -65.389
  H      267.105    -147.786     -58.180
  H      267.891    -149.285     -70.594
  H      265.502    -148.527     -64.664
  H      268.117    -150.906     -64.682
  H      269.376    -148.082     -64.775
  H      269.934    -150.435     -70.444
  H      270.747    -148.827     -62.891
  H      270.545    -150.862     -68.885
  H      268.563    -150.169     -61.666
  H      268.692    -147.198     -62.332
  H      267.497    -147.927     -61.232
  P      271.339    -151.297     -62.007
  C      269.893    -152.514     -60.220
  O      270.749    -152.632     -61.346
  O      271.072    -150.196     -60.873
  O      272.778    -151.346     -62.399
  H      271.870    -150.087     -60.325
  H      269.587    -153.488     -59.901
  H      269.031    -151.939     -60.486
  H      270.416    -152.025     -59.424

 6  7  8  9  10  11  12  13  14  15  26  29  33  34 0
 6-311+G(2d,p)
 ****
 36  38  39  40  41 0
 6-311+G(2d,p)
 ****
 1  2  3  4  5  16  17  18  19  20  21  22  23  24  25 0
 3-21G
 ****
 27  28  30  31  32  35  37  42  43  44  45  46  47 0
 3-21G
 ****
 48  49 0
 3-21G
 ****


