%nproc=1
%NoSave
%Mem=1900MB
#P OB98/GEN NMR

erre ene a

0 1
  C       98.972     190.906       2.191
  O       99.680     191.820       1.377
  H       99.638     190.080       2.453
  H       98.111     190.506       1.648
  H       98.639     191.398       3.111
  P       98.861     193.102       0.863
  C       99.526     192.521      -1.578
  O       98.473     192.798      -0.667
  C       99.112     191.430      -2.560
  O       99.001     190.154      -1.888
  C       97.773     191.677      -3.248
  O       97.921     192.544      -4.361
  C       97.383     190.263      -3.654
  O       98.052     189.856      -4.864
  C       97.872     189.437      -2.453
  N       95.508     185.934       0.311
  C       96.539     185.806      -0.597
  N       96.969     184.548      -0.844
  N       97.093     186.815      -1.216
  C       96.537     188.007      -0.894
  C       95.523     188.266       0.002
  C       94.941     187.139       0.702
  O       94.071     187.195       1.566
  N       95.251     189.609       0.068
  C       96.068     190.156      -0.811
  N       96.858     189.222      -1.433
  O       99.985     194.237       0.735
  O       97.737     193.538       1.740
  H       97.691     190.359      -5.615
  H       99.579     195.108       0.909
  H       95.135     185.119       0.767
  H       96.125     191.212      -1.032
  H       98.231     188.445      -2.754
  H       96.312     190.179      -3.847
  H       96.384     183.743      -0.667
  H       97.036     192.068      -2.535
  H       97.710     184.444      -1.526
  H       99.914     191.333      -3.304
  H      100.404     192.185      -1.016
  H       99.783     193.437      -2.122
  P       97.275     194.010      -4.254
  C       96.221     193.513      -6.581
  O       96.034     194.033      -5.270
  O       98.358     194.944      -4.976
  O       96.979     194.461      -2.861
  H       98.206     195.878      -4.732
  H       95.308     193.599      -7.132
  H       96.505     192.483      -6.519
  H       96.991     194.066      -7.077

 6  7  8  9  10  11  12  13  14  15  26  29  33  34 0
 6-311+G(2d,p)
 ****
 36  38  39  40  41 0
 6-311+G(2d,p)
 ****
 1  2  3  4  5  16  17  18  19  20  21  22  23  24  25 0
 3-21G
 ****
 27  28  30  31  32  35  37  42  43  44  45  46  47 0
 3-21G
 ****
 48  49 0
 3-21G
 ****


