%nproc=1
%NoSave
%Mem=1900MB
#P OB98/GEN NMR

erre ene a

0 1
  C     -427.005    -898.910     906.602
  O     -426.016    -898.640     907.575
  H     -427.127    -900.000     906.514
  H     -426.693    -898.520     905.630
  H     -427.962    -898.470     906.893
  P     -425.802    -897.110     907.978
  C     -427.413    -896.920     910.045
  O     -427.160    -896.600     908.679
  C     -428.091    -895.730     910.734
  O     -427.159    -894.660     910.974
  C     -429.184    -895.080     909.903
  O     -430.343    -895.890     909.798
  C     -429.396    -893.800     910.684
  O     -430.196    -894.020     911.850
  C     -427.937    -893.440     911.088
  N     -427.385    -892.370     910.270
  C     -427.970    -891.110     910.443
  O     -428.889    -890.950     911.250
  N     -427.518    -890.070     909.673
  C     -426.554    -890.250     908.827
  N     -426.165    -889.180     908.092
  C     -425.889    -891.560     908.634
  C     -426.356    -892.560     909.383
  O     -425.840    -896.360     906.562
  O     -424.582    -896.830     908.792
  H     -430.359    -893.140     912.247
  H     -426.629    -896.570     906.040
  H     -425.082    -891.660     907.927
  H     -425.926    -893.550     909.293
  H     -427.887    -893.130     912.134
  H     -429.901    -893.030     910.094
  H     -428.805    -894.820     908.909
  H     -428.474    -896.080     911.705
  H     -426.651    -888.310     908.233
  H     -426.488    -897.190     910.566
  H     -425.443    -889.210     907.380
  H     -428.071    -897.800     910.065
  P     -431.415    -895.610     908.634
  C     -430.168    -897.090     906.947
  O     -430.631    -895.780     907.244
  O     -432.190    -894.340     908.768
  O     -432.324    -896.930     908.674
  H     -431.847    -897.760     908.505
  H     -429.664    -897.085     906.003
  H     -431.000    -897.761     906.903
  H     -429.491    -897.411     907.711

 6  7  8  9  10  11  12  13  14  15  16  26  30  31  32  33  35 0
 6-311+G(2d,p)
 ****
 37  38 0
 6-311+G(2d,p)
 ****
 1  2  3  4  5  17  18  19  20  21  22  23  24  25 0
 3-21G
 ****
 27  28  29  34  36  39  40  41  42  43  44  45  46 0
 3-21G
 ****


