%nproc=1
%NoSave
%Mem=1900MB
#P OB98/GEN NMR

erre ene a

0 1
  C      258.105    -646.716    -797.344
  O      258.655    -647.517    -798.374
  P      259.762    -646.864    -799.333
  C      261.835    -646.525    -797.792
  O      261.186    -647.344    -798.768
  C      263.027    -647.258    -797.181
  O      262.562    -648.393    -796.427
  C      264.019    -647.818    -798.191
  O      264.910    -646.825    -798.679
  C      264.757    -648.843    -797.352
  O      265.772    -648.193    -796.571
  C      263.624    -649.399    -796.435
  N      263.065    -654.295    -795.334
  C      263.696    -653.303    -794.615
  N      264.231    -653.637    -793.426
  N      263.797    -652.063    -795.036
  C      263.189    -651.843    -796.229
  C      262.526    -652.764    -797.032
  C      262.469    -654.144    -796.577
  O      261.990    -655.080    -797.201
  N      262.033    -652.172    -798.165
  C      262.341    -650.881    -798.022
  N      263.070    -650.652    -796.880
  O      259.712    -645.318    -798.911
  O      259.526    -647.056    -800.784
  H      266.500    -647.986    -797.180
  H      260.014    -644.747    -799.657
  H      262.993    -655.229    -794.948
  H      262.065    -650.114    -798.725
  H      263.957    -649.506    -795.408
  H      265.246    -649.621    -797.963
  H      264.059    -654.550    -792.994
  H      263.494    -648.313    -799.026
  H      264.638    -652.923    -792.867
  H      263.527    -646.554    -796.489
  H      261.115    -646.278    -796.985
  H      262.150    -645.591    -798.279
  P      265.620    -647.092    -800.095
  C      263.785    -645.605    -801.172
  O      265.162    -645.873    -801.043
  O      264.821    -648.367    -800.644
  O      267.098    -647.358    -799.996
  H      265.387    -648.879    -801.266
  H      263.244    -645.764    -800.234
  H      263.361    -646.243    -801.953
  H      263.659    -644.575    -801.472
  H      257.386    -647.287    -796.794
  H      257.627    -645.860    -797.774
  H      258.886    -646.396    -796.686

 3  4  5  6  7  8  9  10  11  12  23  26  30  31  33  0
 6-311+G(2d,p)
 ****
 35  36  37  38 0
 6-311+G(2d,p)
 ****
 1  2  13  14  15  16  17  18  19  20  21  22  24  25  27  28  29 0
 3-21G
 ****
 32  34  39  40  41  42  43  44  45  46  47  48  49 0
 3-21G
 ****


