%nproc=1
%NoSave
%Mem=1900MB
#P OB98/GEN NMR

erre ene a

0 1
  C     -890.093     566.323    -465.316
  O     -891.023     565.431    -464.726
  H     -889.153     566.255    -464.770
  H     -890.463     567.354    -465.255
  H     -889.913     566.059    -466.362
  P     -892.493     565.340    -465.336
  C     -893.503     564.931    -462.981
  O     -893.463     565.779    -464.129
  C     -894.153     565.650    -461.806
  O     -893.343     566.746    -461.343
  C     -895.513     566.286    -462.130
  O     -896.583     565.326    -462.258
  C     -895.683     567.171    -460.903
  O     -896.053     566.351    -459.774
  C     -894.253     567.733    -460.756
  N     -894.093     569.038    -461.403
  C     -894.293     570.166    -460.593
  O     -894.593     570.051    -459.413
  N     -894.153     571.423    -461.164
  C     -893.883     571.524    -462.438
  N     -893.783     572.778    -462.939
  C     -893.693     570.363    -463.326
  C     -893.803     569.166    -462.745
  O     -892.853     564.048    -466.011
  O     -892.613     566.617    -466.303
  H     -896.023     566.940    -458.988
  H     -893.513     566.614    -466.725
  H     -893.493     570.502    -464.380
  H     -893.683     568.252    -463.336
  H     -893.973     567.825    -459.684
  H     -896.453     567.926    -461.028
  H     -895.453     566.924    -463.023
  H     -894.233     564.923    -460.983
  H     -893.913     573.560    -462.320
  H     -892.473     564.641    -462.732
  H     -893.673     572.959    -463.938
  H     -894.073     564.015    -463.197
  P     -897.813     565.760    -463.215
  C     -899.063     563.577    -462.515
  O     -899.083     564.979    -462.649
  O     -897.463     564.998    -464.577
  O     -897.983     567.249    -463.392
  H     -897.043     565.631    -465.210
  H     -900.000     563.243    -462.122
  H     -898.275     563.294    -461.849
  H     -898.898     563.129    -463.473

 6  7  8  9  10  11  12  13  14  15  16  26  30  31  32  33  35 0
 6-311+G(2d,p)
 ****
 37  38 0
 6-311+G(2d,p)
 ****
 1  2  3  4  5  17  18  19  20  21  22  23  24  25 0
 3-21G
 ****
 27  28  29  34  36  39  40  41  42  43  44  45  46 0
 3-21G
 ****


