%nproc=1
%NoSave
%Mem=1900MB
#P OB98/GEN NMR

erre ene a

0 1
  C       83.943     335.296     -85.679
  O       84.231     335.619     -87.028
  P       83.977     334.509     -88.152
  C       86.528     334.164     -88.494
  O       85.275     333.569     -88.210
  C       87.280     333.349     -89.552
  O       87.932     332.212     -88.906
  C       86.383     332.789     -90.664
  O       87.155     332.778     -91.874
  C       86.137     331.363     -90.200
  O       85.712     330.502     -91.247
  C       87.515     331.030     -89.618
  N       87.493     329.856     -88.744
  C       87.958     328.659     -89.278
  O       88.380     328.531     -90.425
  N       87.868     327.565     -88.456
  C       87.288     327.534     -87.219
  O       87.135     326.500     -86.579
  C       86.815     328.828     -86.710
  C       86.936     329.915     -87.480
  O       84.049     335.344     -89.518
  O       82.684     333.773     -88.018
  H       85.620     329.610     -90.871
  H       83.150     335.538     -89.844
  H       88.211     326.688     -88.818
  H       86.368     328.847     -85.722
  H       86.576     330.879     -87.142
  H       88.240     330.870     -90.426
  H       85.363     331.360     -89.427
  H       85.457     333.354     -90.807
  H       88.072     333.978     -89.979
  H       87.124     334.202     -87.580
  H       86.379     335.194     -88.839
  P       86.392     333.099     -93.253
  C       86.372     330.556     -93.865
  O       85.643     331.754     -93.690
  O       87.630     333.197     -94.263
  O       85.559     334.339     -93.204
  H       88.290     332.494     -94.118
  H       87.206     330.487     -93.160
  H       86.762     330.513     -94.886
  H       85.704     329.707     -93.706
  H       84.165     336.137     -85.056
  H       84.540     334.461     -85.377
  H       82.907     335.046     -85.586

 3  4  5  6  7  8  9  10  11  12  13  23  28  29  30  31  32 0
 6-311+G(2d,p)
 ****
 33  34 0
 6-311+G(2d,p)
 ****
 1  2  14  15  16  17  18  19  20  21  22  24  25  26 0
 3-21G
 ****
 27  35  36  37  38  39  40  41  42  43  44  45 0
 3-21G
 ****


