%nproc=1
%NoSave
%Mem=1900MB
#P OB98/GEN NMR

erre ene a

0 1
  C     -164.236     222.705     853.539
  O     -164.999     221.514     853.568
  P     -166.547     221.506     853.980
  C     -167.574     222.973     852.076
  O     -167.419     221.658     852.630
  C     -168.571     223.013     850.911
  O     -168.015     222.350     849.756
  C     -169.844     222.230     851.282
  O     -170.870     222.867     852.023
  C     -170.309     221.600     849.963
  O     -171.340     222.343     849.335
  C     -169.043     221.593     849.114
  N     -168.734     217.893     845.642
  C     -169.079     219.228     845.471
  N     -169.575     219.552     844.264
  N     -168.962     220.131     846.403
  C     -168.537     219.625     847.596
  C     -168.147     218.334     847.888
  C     -168.245     217.358     846.820
  O     -168.029     216.142     846.965
  N     -167.840     218.172     849.206
  C     -168.079     219.358     849.742
  N     -168.523     220.266     848.812
  O     -166.938     222.307     855.175
  O     -166.768     219.951     854.349
  H     -172.144     222.297     849.884
  H     -167.421     219.901     855.073
  H     -168.918     217.245     844.907
  H     -167.965     219.605     850.790
  H     -169.225     222.085     848.151
  H     -170.724     220.609     850.151
  H     -169.828     218.849     843.565
  H     -169.535     221.388     851.909
  H     -169.992     220.479     844.161
  H     -168.761     224.040     850.583
  H     -166.577     223.297     851.752
  H     -167.905     223.653     852.857
  P     -171.346     222.483     853.508
  C     -169.762     224.084     854.747
  O     -171.121     223.748     854.455
  O     -170.225     221.442     854.023
  O     -172.706     221.861     853.590
  H     -170.583     220.893     854.742
  H     -169.733     224.733     855.609
  H     -169.324     224.594     853.881
  H     -169.179     223.184     854.961
  H     -163.234     222.480     853.239
  H     -164.225     223.146     854.514
  H     -164.671     223.391     852.843

 3  4  5  6  7  8  9  10  11  12  23  26  30  31 0
 6-311+G(2d,p)
 ****
 33  35  36  37  38 0
 6-311+G(2d,p)
 ****
 1  2  13  14  15  16  17  18  19  20  21  22  24  25 0
 3-21G
 ****
 27  28  29  32  34  39  40  41  42  43  44  45  46  47  48  49 0
 3-21G
 ****


