%nproc=1
%NoSave
%Mem=1900MB
#P OB98/GEN NMR

erre ene a

0 1
  C     -197.280    -244.819     262.430
  O     -197.013    -245.044     263.801
  H     -196.838    -243.860     262.135
  H     -198.362    -244.769     262.271
  H     -196.847    -245.613     261.813
  P     -197.295    -246.514     264.369
  C     -199.435    -246.149     265.790
  O     -198.889    -246.642     264.577
  C     -200.525    -247.090     266.308
  O     -201.639    -247.072     265.372
  C     -200.062    -248.547     266.457
  O     -200.664    -249.104     267.632
  C     -200.636    -249.229     265.221
  O     -200.834    -250.628     265.412
  C     -201.923    -248.434     265.007
  N     -204.130    -251.462     261.625
  C     -203.899    -251.651     262.972
  N     -204.307    -252.827     263.502
  N     -203.311    -250.766     263.743
  C     -202.990    -249.620     263.086
  C     -203.160    -249.314     261.755
  C     -203.785    -250.312     260.908
  O     -203.999    -250.214     259.703
  N     -202.667    -248.068     261.464
  C     -202.203    -247.619     262.619
  N     -202.377    -248.524     263.632
  O     -196.726    -246.444     265.868
  O     -196.670    -247.632     263.601
  H     -201.324    -250.742     266.257
  H     -195.970    -247.051     265.960
  H     -204.575    -252.184     261.080
  H     -201.720    -246.660     262.770
  H     -202.750    -248.799     265.646
  H     -199.950    -249.092     264.377
  H     -204.806    -253.534     262.980
  H     -198.976    -248.649     266.519
  H     -204.183    -252.971     264.497
  H     -200.904    -246.697     267.257
  H     -199.867    -245.155     265.602
  H     -198.638    -246.055     266.536
  P     -199.933    -248.802     269.032
  C     -197.844    -249.953     268.002
  O     -198.340    -248.884     268.796
  O     -200.248    -250.115     269.898
  O     -200.418    -247.564     269.716
  H     -200.900    -249.902     270.593
  H     -196.779    -249.881     267.932
  H     -198.270    -249.897     267.022
  H     -198.109    -250.886     268.454

 6  7  8  9  10  11  12  13  14  15  26  29  33  34 0
 6-311+G(2d,p)
 ****
 36  38  39  40  41 0
 6-311+G(2d,p)
 ****
 1  2  3  4  5  16  17  18  19  20  21  22  23  24  25 0
 3-21G
 ****
 27  28  30  31  32  35  37  42  43  44  45  46  47 0
 3-21G
 ****
 48  49 0
 3-21G
 ****


