%nproc=1
%NoSave
%Mem=1900MB
#P OB98/GEN NMR

erre ene a

0 1
  C      -39.682     241.683     -36.307
  O      -39.213     242.514     -35.263
  H      -40.037     240.745     -35.874
  H      -38.883     241.462     -37.020
  H      -40.515     242.167     -36.823
  P      -38.385     243.832     -35.660
  C      -40.546     245.238     -35.683
  O      -39.431     244.773     -36.438
  C      -40.563     246.765     -35.603
  O      -40.483     247.346     -36.922
  C      -41.833     247.342     -34.999
  O      -42.020     247.054     -33.633
  C      -41.763     248.793     -35.452
  O      -40.930     249.587     -34.608
  C      -41.114     248.645     -36.850
  N      -42.075     248.838     -37.931
  C      -41.536     249.114     -39.182
  O      -40.328     249.219     -39.395
  N      -42.440     249.302     -40.191
  C      -43.797     249.288     -40.061
  O      -44.556     249.485     -41.004
  C      -44.309     249.030     -38.706
  C      -43.438     248.818     -37.717
  O      -37.108     243.594     -36.409
  O      -38.182     244.591     -34.267
  H      -41.425     249.738     -33.780
  H      -37.482     245.286     -34.337
  H      -42.069     249.488     -41.110
  H      -45.381     249.023     -38.564
  H      -43.791     248.622     -36.707
  H      -40.312     249.386     -36.975
  H      -42.748     249.265     -35.474
  H      -42.692     246.898     -35.518
  H      -39.675     247.084     -35.046
  H      -40.460     244.825     -34.673
  H      -41.473     244.873     -36.138
  P      -43.445     247.023     -32.921
  C      -43.673     244.497     -32.286
  O      -44.087     245.568     -33.126
  O      -44.324     248.214     -33.127
  O      -43.029     246.988     -31.360
  H      -43.710     247.490     -30.869
  H      -44.198     243.606     -32.559
  H      -43.888     244.740     -31.266
  H      -42.621     244.340     -32.401

 6  7  8  9  10  11  12  13  14  15  16  26  31  32  33  34  35 0
 6-311+G(2d,p)
 ****
 36  37 0
 6-311+G(2d,p)
 ****
 1  2  3  4  5  17  18  19  20  21  22  23  24  25 0
 3-21G
 ****
 27  28  29  30  38  39  40  41  42  43  44  45 0
 3-21G
 ****


