%nproc=1
%NoSave
%Mem=1900MB
#P OB98/GEN NMR

erre ene a

0 1
  C     -328.143    -247.893     392.221
  O     -328.036    -248.730     391.086
  H     -327.443    -247.058     392.109
  H     -327.884    -248.450     393.125
  H     -329.160    -247.494     392.298
  P     -329.007    -250.011     391.046
  C     -330.935    -248.499     390.211
  O     -330.478    -249.396     391.216
  C     -332.238    -249.005     389.592
  O     -333.312    -248.943     390.550
  C     -332.715    -248.206     388.385
  O     -332.023    -248.602     387.209
  C     -334.185    -248.608     388.338
  O     -334.313    -249.902     387.718
  C     -334.555    -248.703     389.830
  N     -338.600    -245.544     389.535
  C     -338.170    -246.531     388.723
  N     -337.062    -247.295     388.838
  C     -336.364    -246.964     389.940
  C     -336.677    -245.976     390.859
  C     -337.860    -245.248     390.633
  N     -338.298    -244.243     391.476
  N     -335.721    -245.918     391.860
  C     -334.871    -246.890     391.569
  N     -335.201    -247.528     390.394
  O     -328.648    -251.125     391.970
  O     -328.964    -250.377     389.485
  H     -333.994    -249.820     386.796
  H     -328.960    -249.571     388.946
  H     -338.801    -246.739     387.859
  H     -334.027    -247.176     392.176
  H     -335.220    -249.551     390.032
  H     -334.787    -247.912     387.749
  H     -332.647    -247.121     388.565
  H     -332.100    -250.062     389.332
  H     -330.177    -248.380     389.432
  H     -339.055    -243.664     391.149
  H     -337.687    -243.946     392.217
  H     -331.096    -247.523     390.687
  P     -331.763    -247.556     386.018
  C     -329.327    -247.304     386.805
  O     -330.533    -246.627     386.483
  O     -332.970    -246.808     385.562
  O     -331.129    -248.436     384.844
  H     -331.467    -248.131     383.981
  H     -328.585    -246.591     387.098
  H     -328.982    -247.846     385.949
  H     -329.505    -247.986     387.610

 6  7  8  9  10  11  12  13  14  15  25  28  32  33  34  35 0
 6-311+G(2d,p)
 ****
 36  39  40 0
 6-311+G(2d,p)
 ****
 1  2  3  4  5  16  17  18  19  20  21  22  23  24 0
 3-21G
 ****
 26  27  29  30  31  37  38  41  42  43  44  45  46  47 0
 3-21G
 ****
 48 0
 3-21G
 ****


