%nproc=1
%NoSave
%Mem=1900MB
#P OB98/GEN NMR

erre ene a

0 1
  C      -36.453    -512.893    -677.600
  O      -36.229    -512.497    -678.938
  H      -36.538    -513.983    -677.566
  H      -37.381    -512.459    -677.215
  H      -35.613    -512.591    -676.971
  P      -36.226    -510.935    -679.292
  C      -33.867    -511.131    -680.304
  O      -34.685    -510.484    -679.340
  C      -32.711    -510.224    -680.731
  O      -33.240    -509.176    -681.591
  C      -31.989    -509.556    -679.556
  O      -30.596    -509.492    -679.861
  C      -32.594    -508.167    -679.539
  O      -31.737    -507.232    -678.915
  C      -32.861    -507.909    -681.026
  N      -33.898    -506.893    -681.210
  C      -33.504    -505.562    -681.037
  O      -32.335    -505.288    -680.761
  N      -34.454    -504.575    -681.116
  C      -35.698    -504.893    -681.296
  N      -36.590    -503.866    -681.325
  C      -36.161    -506.285    -681.457
  C      -35.219    -507.225    -681.405
  O      -37.105    -510.070    -678.452
  O      -36.666    -510.899    -680.830
  H      -30.814    -507.384    -679.214
  H      -37.635    -510.814    -680.900
  H      -37.212    -506.495    -681.596
  H      -35.468    -508.276    -681.501
  H      -31.946    -507.571    -681.534
  H      -33.542    -508.182    -678.984
  H      -32.141    -510.077    -678.606
  H      -32.014    -510.810    -681.338
  H      -36.228    -502.931    -681.188
  H      -34.491    -511.364    -681.172
  H      -37.587    -503.990    -681.413
  H      -33.475    -512.067    -679.891
  P      -29.495    -509.750    -678.722
  C      -28.585    -511.617    -680.216
  O      -28.909    -511.239    -678.883
  O      -29.939    -509.403    -677.336
  O      -28.263    -508.821    -679.164
  H      -27.779    -508.531    -678.364
  H      -28.205    -512.617    -680.221
  H      -27.843    -510.952    -680.605
  H      -29.464    -511.566    -680.825

 6  7  8  9  10  11  12  13  14  15  16  26  30  31  32  33  35 0
 6-311+G(2d,p)
 ****
 37  38 0
 6-311+G(2d,p)
 ****
 1  2  3  4  5  17  18  19  20  21  22  23  24  25 0
 3-21G
 ****
 27  28  29  34  36  39  40  41  42  43  44  45  46 0
 3-21G
 ****


