%nproc=1
%NoSave
%Mem=1900MB
#P OB98/GEN NMR

erre ene a

0 1
  C     -235.903      40.805     366.686
  O     -236.526      40.583     367.942
  P     -238.118      40.429     368.061
  C     -239.679      39.583     369.921
  O     -238.352      39.586     369.406
  C     -239.681      39.076     371.361
  O     -239.317      37.675     371.354
  C     -238.681      39.745     372.305
  O     -239.135      40.960     372.881
  C     -238.568      38.684     373.394
  O     -239.707      38.765     374.270
  C     -238.611      37.384     372.587
  N     -235.806      33.167     371.873
  C     -237.118      33.346     372.140
  N     -237.788      34.501     372.335
  C     -236.965      35.552     372.188
  C     -235.607      35.529     371.909
  C     -235.019      34.263     371.748
  N     -233.685      34.084     371.453
  N     -235.100      36.813     371.851
  C     -236.136      37.592     372.076
  N     -237.285      36.878     372.277
  O     -238.781      39.899     366.838
  O     -238.626      41.891     368.461
  H     -239.596      39.573     374.808
  H     -239.587      41.964     368.299
  H     -237.712      32.437     372.211
  H     -236.100      38.672     372.106
  H     -239.164      36.590     373.098
  H     -237.678      38.808     374.018
  H     -237.703      39.873     371.825
  H     -240.702      39.157     371.755
  H     -240.287      38.911     369.303
  H     -233.382      33.151     371.227
  H     -233.142      34.898     371.200
  H     -240.101      40.588     369.855
  P     -238.034      41.884     373.605
  C     -237.409      44.421     373.408
  O     -238.194      43.340     372.948
  O     -236.655      41.326     373.598
  O     -238.641      42.075     375.073
  H     -239.461      42.597     375.119
  H     -237.550      45.267     372.732
  H     -236.348      44.157     373.418
  H     -237.728      44.715     374.411
  H     -234.844      40.879     366.821
  H     -236.272      41.715     366.260
  H     -236.123      39.989     366.030

 3  4  5  6  7  8  9  10  11  12  22  25  29  30  31  32 0
 6-311+G(2d,p)
 ****
 33  36  37 0
 6-311+G(2d,p)
 ****
 1  2  13  14  15  16  17  18  19  20  21  23  24  26 0
 3-21G
 ****
 27  28  34  35  38  39  40  41  42  43  44  45  46  47  48 0
 3-21G
 ****


