%nproc=1
%NoSave
%Mem=1900MB
#P OB98/GEN NMR

erre ene a

0 1
  C       65.888      56.628       7.617
  O       65.470      56.162       8.880
  H       65.097      57.253       7.195
  H       66.057      55.778       6.950
  H       66.803      57.222       7.691
  P       66.572      55.620       9.904
  C       68.535      53.948       9.786
  O       67.277      54.335       9.247
  C       68.660      52.429       9.894
  O       67.684      51.926      10.832
  C       68.397      51.722       8.561
  O       69.536      51.595       7.728
  C       67.901      50.354       9.023
  O       68.994      49.441       9.219
  C       67.210      50.658      10.356
  N       62.832      48.055      10.798
  C       64.130      47.580      10.833
  N       64.266      46.244      10.965
  N       65.180      48.351      10.730
  C       64.882      49.650      10.503
  C       63.637      50.233      10.428
  C       62.480      49.385      10.617
  O       61.312      49.758      10.611
  N       63.724      51.575      10.143
  C       65.014      51.779       9.962
  N       65.762      50.661      10.247
  O       65.698      54.969      11.082
  O       67.507      56.655      10.453
  H       68.625      48.587       9.516
  H       66.173      55.057      11.928
  H       62.064      47.418      10.911
  H       65.462      52.722       9.670
  H       67.470      49.914      11.120
  H       67.247      49.903       8.272
  H       63.495      45.598      10.962
  H       67.585      52.212       8.017
  H       65.191      45.837      10.805
  H       69.650      52.174      10.294
  H       68.601      54.400      10.777
  H       69.350      54.358       9.184
  P       69.424      51.802       6.147
  C       68.185      50.562       4.192
  O       68.623      50.566       5.533
  O       70.922      51.557       5.644
  O       68.895      53.127       5.709
  H       71.381      52.407       5.504
  H       67.672      49.645       3.987
  H       69.029      50.652       3.541
  H       67.521      51.386       4.031

 6  7  8  9  10  11  12  13  14  15  26  29  33  34 0
 6-311+G(2d,p)
 ****
 36  38  39  40  41 0
 6-311+G(2d,p)
 ****
 1  2  3  4  5  16  17  18  19  20  21  22  23  24  25 0
 3-21G
 ****
 27  28  30  31  32  35  37  42  43  44  45  46  47 0
 3-21G
 ****
 48  49 0
 3-21G
 ****


