%nproc=1
%NoSave
%Mem=1900MB
#P OB98/GEN NMR

erre ene a

0 1
  C     -119.108    -894.520     546.283
  O     -119.618    -893.200     546.252
  P     -120.569    -892.590     547.367
  C     -123.143    -892.580     547.847
  O     -122.056    -893.180     547.169
  C     -124.427    -893.380     547.656
  O     -124.917    -893.170     546.295
  C     -124.176    -894.900     547.781
  O     -125.187    -895.600     548.497
  C     -123.917    -895.340     546.345
  O     -124.101    -896.730     546.118
  C     -124.866    -894.410     545.564
  N     -124.617    -896.180     540.797
  C     -125.319    -896.680     541.872
  N     -125.868    -897.910     541.720
  N     -125.434    -896.050     543.027
  C     -124.715    -894.900     543.082
  C     -123.990    -894.300     542.081
  C     -123.904    -894.980     540.808
  O     -123.205    -894.630     539.854
  N     -123.372    -893.160     542.521
  C     -123.679    -893.090     543.795
  N     -124.475    -894.150     544.196
  O     -120.438    -891.120     547.639
  O     -120.062    -893.380     548.694
  H     -125.034    -896.930     546.256
  H     -120.160    -892.760     549.449
  H     -124.499    -896.740     539.963
  H     -123.343    -892.310     544.489
  H     -125.872    -894.820     545.520
  H     -122.878    -895.110     546.107
  H     -125.670    -898.480     540.902
  H     -123.264    -895.090     548.368
  H     -126.163    -898.400     542.557
  H     -125.204    -893.030     548.352
  H     -123.262    -891.570     547.422
  H     -122.915    -892.460     548.912
  P     -125.203    -897.150     548.966
  C     -125.738    -899.410     547.904
  O     -125.406    -898.060     547.662
  O     -126.593    -897.320     549.749
  O     -124.052    -897.550     549.842
  H     -126.445    -897.910     550.519
  H     -125.571    -900.000     546.983
  H     -126.797    -899.490     548.187
  H     -125.096    -899.840     548.685
  H     -118.496    -894.686     545.421
  H     -119.920    -895.216     546.283
  H     -118.522    -894.655     547.168

 3  4  5  6  7  8  9  10  11  12  23  26  30  31 0
 6-311+G(2d,p)
 ****
 33  35  36  37  38 0
 6-311+G(2d,p)
 ****
 1  2  13  14  15  16  17  18  19  20  21  22  24  25 0
 3-21G
 ****
 27  28  29  32  34  39  40  41  42  43  44  45  46  47  48  49 0
 3-21G
 ****


