%nproc=1
%NoSave
%Mem=1900MB
#P OB98/GEN NMR

erre ene a

0 1
  C      -52.019     -56.153     -89.575
  O      -51.170     -56.703     -90.562
  H      -52.541     -55.293     -89.999
  H      -51.431     -55.820     -88.715
  H      -52.758     -56.893     -89.255
  P      -50.323     -57.998     -90.142
  C      -51.870     -59.722     -91.323
  O      -51.360     -59.221     -90.094
  C      -51.198     -61.050     -91.655
  O      -51.570     -62.045     -90.672
  C      -51.614     -61.633     -92.998
  O      -50.954     -61.011     -94.085
  C      -51.236     -63.094     -92.813
  O      -49.846     -63.313     -93.083
  C      -51.535     -63.332     -91.329
  N      -53.867     -67.859     -91.672
  C      -52.581     -67.491     -91.856
  N      -52.035     -66.262     -91.733
  C      -52.964     -65.370     -91.351
  C      -54.309     -65.598     -91.121
  C      -54.761     -66.917     -91.294
  N      -56.074     -67.288     -91.131
  N      -54.950     -64.424     -90.783
  C      -54.008     -63.503     -90.798
  N      -52.791     -64.029     -91.132
  O      -49.985     -57.725     -88.602
  O      -49.092     -58.238     -90.948
  H      -49.357     -62.655     -92.552
  H      -49.073     -57.388     -88.524
  H      -51.902     -68.285     -92.152
  H      -54.157     -62.452     -90.585
  H      -50.754     -63.926     -90.839
  H      -51.810     -63.732     -93.486
  H      -52.703     -61.564     -93.118
  H      -50.110     -60.914     -91.608
  H      -51.662     -59.003     -92.122
  H      -52.953     -59.849     -91.232
  H      -56.339     -68.237     -91.339
  H      -56.768     -66.572     -90.962
  P      -51.608     -61.164     -95.540
  C      -53.035     -59.007     -95.210
  O      -53.013     -60.395     -95.513
  O      -52.020     -62.709     -95.615
  O      -50.712     -60.774     -96.667
  H      -51.897     -63.041     -96.525
  H      -54.044     -58.653     -95.234
  H      -52.453     -58.475     -95.933
  H      -52.625     -58.848     -94.235

 6  7  8  9  10  11  12  13  14  15  25  28  32  33  34  35 0
 6-311+G(2d,p)
 ****
 36  37  40 0
 6-311+G(2d,p)
 ****
 1  2  3  4  5  16  17  18  19  20  21  22  23  24 0
 3-21G
 ****
 26  27  29  30  31  38  39 41  42  43  44  45  46  47  48 0
 3-21G
 ****


