%nproc=1
%NoSave
%Mem=1900MB
#P OB98/GEN NMR

erre ene a

0 1
  C     -366.198     273.045     248.306
  O     -366.324     272.494     249.615
  P     -367.134     273.325     250.715
  C     -365.320     273.850     252.578
  O     -366.462     273.129     252.153
  C     -364.637     273.081     253.727
  O     -363.971     271.907     253.219
  C     -363.598     273.918     254.471
  O     -364.172     274.694     255.501
  C     -362.636     272.852     254.971
  O     -363.185     272.197     256.126
  C     -362.617     271.880     253.762
  N     -361.660     272.155     252.665
  C     -360.559     271.315     252.482
  O     -360.303     270.341     253.180
  N     -359.728     271.638     251.434
  C     -359.974     272.573     250.480
  O     -359.219     272.775     249.526
  C     -361.221     273.330     250.624
  C     -361.986     273.093     251.706
  O     -368.524     272.545     250.838
  O     -367.335     274.771     250.380
  H     -362.686     271.363     256.247
  H     -369.260     273.113     250.539
  H     -358.886     271.089     251.334
  H     -361.476     274.052     249.858
  H     -362.906     273.652     251.831
  H     -362.419     270.856     254.099
  H     -361.691     273.284     255.285
  H     -363.049     274.553     253.760
  H     -365.416     272.751     254.431
  H     -365.596     274.857     252.903
  H     -364.628     273.964     251.735
  P     -363.585     276.148     255.823
  C     -363.636     275.694     258.353
  O     -364.115     276.510     257.301
  O     -363.812     277.199     254.783
  O     -362.024     275.883     256.079
  H     -361.502     276.051     255.260
  H     -363.942     276.139     259.305
  H     -362.542     275.640     258.325
  H     -364.066     274.693     258.272
  H     -365.634     272.376     247.690
  H     -365.695     273.988     248.363
  H     -367.171     273.185     247.883

 3  4  5  6  7  8  9  10  11  12  13  23  28  29  30  31  32 0
 6-311+G(2d,p)
 ****
 33  34 0
 6-311+G(2d,p)
 ****
 1  2  14  15  16  17  18  19  20  21  22  24  25  26  27 0
 3-21G
 ****
 35  36  37  38  39  40  41  42  43  44  45 0
 3-21G
 ****


