%nproc=1
%NoSave
%Mem=1900MB
#P OB98/GEN NMR

erre ene a

0 1
  C     -119.816      84.510     277.708
  O     -119.146      84.011     276.560
  P     -117.551      84.184     276.491
  C     -116.736      81.916     277.548
  O     -116.965      83.308     277.700
  C     -115.268      81.659     277.196
  O     -114.887      82.469     276.063
  C     -114.282      82.013     278.300
  O     -114.253      81.025     279.322
  C     -112.983      82.141     277.506
  O     -112.426      80.843     277.248
  C     -113.480      82.777     276.192
  N     -113.246      84.219     276.125
  C     -111.918      84.619     276.002
  O     -110.978      83.830     275.946
  N     -111.708      85.975     275.960
  C     -112.663      86.940     276.091
  O     -112.412      88.140     276.090
  C     -114.041      86.456     276.253
  C     -114.266      85.139     276.262
  O     -117.400      85.701     276.979
  O     -116.987      83.893     275.143
  H     -118.135      85.970     277.559
  H     -113.069      80.373     276.683
  H     -110.756      86.289     275.844
  H     -114.826      87.193     276.369
  H     -115.272      84.763     276.389
  H     -112.988      82.308     275.334
  H     -112.223      82.727     278.032
  H     -114.541      82.985     278.736
  H     -115.162      80.605     276.908
  H     -117.376      81.532     276.747
  H     -117.000      81.407     278.482
  P     -113.720      81.500     280.761
  C     -116.004      82.087     281.887
  O     -114.796      82.545     281.318
  O     -112.466      82.405     280.347
  O     -113.388      80.366     281.679
  H     -112.650      82.974     279.582
  H     -116.422      82.882     282.510
  H     -115.843      81.200     282.507
  H     -116.716      81.854     281.091
  H     -120.866      84.326     277.616
  H     -119.644      85.563     277.792
  H     -119.443      84.017     278.581

 3  4  5  6  7  8  9  10  11  12  13  24  28  29  30  31  32 0
 6-311+G(2d,p)
 ****
 33  34 0
 6-311+G(2d,p)
 ****
 1  2  14  15  16  17  18  19  20  21  22  23  25  26  27 0
 3-21G
 ****
 35  36  37  38  39  40  41  42  43  44  45 0
 3-21G
 ****


