%nproc=1
%NoSave
%Mem=1900MB
#P OB98/GEN NMR

erre ene a

0 1
  C      782.086    -531.081     821.452
  O      781.117    -530.873     820.423
  P      781.665    -530.653     818.932
  C      781.014    -528.110     818.948
  O      782.035    -529.096     818.818
  C      781.588    -526.724     818.692
  O      782.557    -526.378     819.723
  C      782.338    -526.596     817.383
  O      781.461    -526.537     816.272
  C      783.142    -525.320     817.628
  O      782.308    -524.164     817.409
  C      783.495    -525.442     819.130
  N      784.861    -525.851     819.357
  C      785.529    -525.185     820.392
  O      785.019    -524.283     821.050
  N      786.830    -525.568     820.614
  C      787.512    -526.523     819.913
  O      788.673    -526.837     820.172
  C      786.783    -527.161     818.805
  C      785.512    -526.803     818.582
  O      780.311    -530.802     818.075
  O      782.752    -531.619     818.561
  H      779.537    -530.445     818.541
  H      781.890    -524.289     816.530
  H      787.314    -525.110     821.366
  H      787.304    -527.882     818.215
  H      784.956    -527.261     817.765
  H      783.322    -524.484     819.630
  H      784.010    -525.227     816.957
  H      783.036    -527.440     817.262
  H      780.770    -525.991     818.725
  H      780.587    -528.141     819.959
  H      780.208    -528.344     818.236
  P      781.232    -527.902     815.450
  C      783.190    -527.836     813.718
  O      782.663    -528.364     814.923
  O      780.484    -527.356     814.133
  O      780.466    -528.945     816.216
  H      780.891    -526.558     813.780
  H      784.259    -527.982     813.713
  H      782.970    -526.767     813.616
  H      782.750    -528.364     812.866
  H      781.588    -531.213     822.390
  H      782.734    -530.231     821.509
  H      782.662    -531.954     821.228

 3  4  5  6  7  8  9  10  11  12  13  24  28  29  30  31  32 0
 6-311+G(2d,p)
 ****
 33  34 0
 6-311+G(2d,p)
 ****
 1  2  14  15  16  17  18  19  20  21  22  23  25  26  27 0
 3-21G
 ****
 35  36  37  38  39  40  41  42  43  44  45 0
 3-21G
 ****


