%nproc=1
%NoSave
%Mem=1900MB
#P OB98/GEN NMR

erre ene a

0 1
  C     -172.807      19.787     117.658
  O     -173.665      19.143     118.576
  H     -171.908      20.108     118.189
  H     -173.302      20.669     117.242
  H     -172.514      19.113     116.851
  P     -174.900      18.294     118.013
  C     -177.208      18.812     116.976
  O     -176.031      19.343     117.567
  C     -177.976      19.903     116.219
  O     -178.507      20.855     117.177
  C     -177.054      20.687     115.275
  O     -177.760      21.218     114.155
  C     -176.578      21.835     116.149
  O     -176.133      22.966     115.398
  C     -177.818      22.106     116.999
  N     -178.235      26.169     120.054
  C     -178.525      26.053     118.708
  N     -178.989      27.173     118.098
  N     -178.353      24.957     118.020
  C     -177.814      23.944     118.742
  C     -177.464      23.941     120.075
  C     -177.691      25.154     120.834
  O     -177.431      25.314     122.023
  N     -176.937      22.731     120.453
  C     -176.964      22.004     119.355
  N     -177.512      22.687     118.294
  O     -175.540      17.638     119.330
  O     -174.557      17.253     116.991
  H     -175.505      23.458     115.958
  H     -176.059      16.847     119.097
  H     -178.413      27.028     120.543
  H     -176.620      20.978     119.275
  H     -178.498      22.793     116.482
  H     -175.724      21.486     116.738
  H     -178.947      28.076     118.541
  H     -176.217      20.093     114.916
  H     -178.909      27.196     117.077
  H     -178.835      19.465     115.697
  H     -177.817      18.405     117.786
  H     -176.958      17.983     116.312
  P     -178.026      20.266     112.894
  C     -176.578      19.246     110.925
  O     -176.655      19.988     112.123
  O     -178.851      21.192     111.886
  O     -178.759      19.000     113.220
  H     -179.751      20.838     111.758
  H     -175.559      19.196     110.601
  H     -177.169      19.723     110.171
  H     -176.947      18.256     111.094

 6  7  8  9  10  11  12  13  14  15  26  29  33  34 0
 6-311+G(2d,p)
 ****
 36  38  39  40  41 0
 6-311+G(2d,p)
 ****
 1  2  3  4  5  16  17  18  19  20  21  22  23  24  25 0
 3-21G
 ****
 27  28  30  31  32  35  37  42  43  44  45  46  47 0
 3-21G
 ****
 48  49 0
 3-21G
 ****


