%nproc=1
%NoSave
%Mem=1900MB
#P OB98/GEN NMR

erre ene a

0 1
  C      147.624    -760.342     176.184
  O      148.526    -761.023     177.067
  P      149.146    -762.422     176.578
  C      150.974    -763.100     174.857
  O      150.492    -762.114     175.767
  C      151.973    -762.472     173.878
  O      151.362    -761.405     173.105
  C      153.183    -761.851     174.551
  O      154.179    -762.826     174.843
  C      153.687    -760.919     173.456
  O      154.438    -761.666     172.483
  C      152.379    -760.399     172.841
  N      152.099    -755.416     172.010
  C      152.585    -756.427     171.205
  N      153.060    -756.058     169.994
  N      152.600    -757.689     171.553
  C      152.080    -757.909     172.781
  C      151.565    -756.998     173.675
  C      151.568    -755.601     173.280
  O      151.157    -754.657     173.958
  N      151.133    -757.600     174.823
  C      151.363    -758.888     174.624
  N      151.949    -759.124     173.405
  O      148.125    -762.879     175.427
  O      149.255    -763.454     177.658
  H      154.626    -761.054     171.743
  H      148.117    -763.849     175.358
  H      152.112    -754.457     171.688
  H      151.118    -759.674     175.330
  H      152.444    -760.268     171.757
  H      154.354    -760.139     173.844
  H      153.032    -755.116     169.641
  H      152.897    -761.271     175.442
  H      153.397    -756.792     169.379
  H      152.303    -763.252     173.182
  H      150.144    -763.545     174.306
  H      151.432    -763.913     175.428
  P      154.658    -762.969     176.372
  C      153.171    -763.380     178.461
  O      153.484    -763.748     177.130
  O      154.546    -761.468     176.920
  O      156.031    -763.523     176.543
  H      155.228    -761.308     177.609
  H      152.249    -763.902     178.762
  H      153.015    -762.303     178.543
  H      153.981    -763.693     179.136
  H      147.296    -759.432     176.642
  H      146.778    -760.967     175.986
  H      148.125    -760.118     175.265

 3  4  5  6  7  8  9  10  11  12  23  26  30  31 0
 6-311+G(2d,p)
 ****
 33  35  36  37  38 0
 6-311+G(2d,p)
 ****
 1  2  13  14  15  16  17  18  19  20  21  22  24  25 0
 3-21G
 ****
 27  28  29  32  34  39  40  41  42  43  44  45  46  47  48  49 0
 3-21G
 ****


