%nproc=1
%NoSave
%Mem=1900MB
#P OB98/GEN NMR

erre ene a

0 1
  C     -370.800      51.105     317.104
  O     -372.155      50.827     317.377
  P     -373.265      50.866     316.233
  C     -375.205      49.356     317.042
  O     -374.696      50.690     316.958
  C     -376.727      49.374     316.958
  O     -377.274      49.850     318.228
  C     -377.263      50.307     315.831
  O     -378.174      49.679     314.928
  C     -377.823      51.480     316.612
  O     -378.770      52.255     315.890
  C     -378.311      50.804     317.896
  N     -378.557      51.756     318.979
  C     -379.759      52.467     318.940
  O     -380.617      52.335     318.082
  N     -379.924      53.408     319.930
  C     -378.989      53.784     320.832
  O     -379.165      54.707     321.634
  C     -377.723      53.034     320.803
  C     -377.568      52.052     319.909
  O     -373.041      49.915     315.100
  O     -373.303      52.400     315.799
  H     -379.454      51.650     315.564
  H     -373.525      53.020     316.511
  H     -380.797      53.920     319.906
  H     -376.959      53.316     321.507
  H     -376.647      51.470     319.860
  H     -379.233      50.247     317.730
  H     -376.983      52.157     316.855
  H     -376.450      50.643     315.192
  H     -377.071      48.343     316.796
  H     -374.906      48.930     317.999
  H     -374.761      48.745     316.247
  P     -378.223      49.933     313.349
  C     -377.742      47.383     313.020
  O     -378.479      48.525     312.622
  O     -377.073      50.719     312.802
  O     -379.602      50.719     313.136
  H     -379.530      51.300     312.348
  H     -377.650      46.713     312.169
  H     -378.279      46.872     313.824
  H     -376.741      47.656     313.371
  H     -370.230      51.024     318.006
  H     -370.711      52.098     316.714
  H     -370.430      50.405     316.384

 3  4  5  6  7  8  9  10  11  12  13  23  28  29  30  31  32 0
 6-311+G(2d,p)
 ****
 33  34 0
 6-311+G(2d,p)
 ****
 1  2  14  15  16  17  18  19  20  21  22  24  25  26  27 0
 3-21G
 ****
 35  36  37  38  39  40  41  42  43  44  45 0
 3-21G
 ****


