%nproc=1
%NoSave
%Mem=1900MB
#P OB98/GEN NMR

erre ene a

0 1
  C     -121.060    -239.786     140.469
  O     -121.089    -239.145     141.731
  H     -121.063    -239.021     139.687
  H     -121.945    -240.418     140.347
  H     -120.153    -240.386     140.372
  P     -121.064    -240.103     143.019
  C     -123.253    -241.324     142.367
  O     -122.609    -240.447     143.283
  C     -124.732    -241.461     142.711
  O     -125.403    -242.288     141.742
  C     -125.008    -242.102     144.064
  O     -124.869    -241.155     145.111
  C     -126.456    -242.537     143.886
  O     -127.330    -241.405     144.078
  C     -126.493    -242.982     142.411
  N     -128.331    -247.652     143.491
  C     -128.610    -246.433     144.006
  N     -128.051    -245.244     143.702
  C     -127.112    -245.387     142.755
  C     -126.718    -246.562     142.134
  C     -127.381    -247.738     142.530
  N     -127.101    -248.976     141.992
  N     -125.722    -246.320     141.212
  C     -125.554    -245.014     141.237
  N     -126.346    -244.406     142.181
  O     -120.289    -239.598     144.185
  O     -120.516    -241.464     142.375
  H     -127.001    -240.682     143.511
  H     -120.893    -241.600     141.489
  H     -129.387    -246.414     144.767
  H     -124.888    -244.460     140.585
  H     -127.423    -242.681     141.920
  H     -126.755    -243.296     144.610
  H     -124.386    -242.990     144.222
  H     -125.185    -240.462     142.652
  H     -122.772    -242.311     142.384
  H     -127.496    -249.781     142.451
  H     -126.310    -249.054     141.370
  H     -123.134    -240.899     141.366
  P     -123.670    -241.276     146.169
  C     -125.421    -241.652     148.013
  O     -124.284    -240.900     147.603
  O     -122.433    -240.527     145.810
  O     -123.398    -242.847     146.292
  H     -122.441    -243.020     146.376
  H     -125.742    -241.317     148.977
  H     -125.163    -242.689     148.064
  H     -126.213    -241.515     147.306

 6  7  8  9  10  11  12  13  14  15  25  28  32  33  34  35 0
 6-311+G(2d,p)
 ****
 36  39  40 0
 6-311+G(2d,p)
 ****
 1  2  3  4  5  16  17  18  19  20  21  22  23  24 0
 3-21G
 ****
 26  27  29  30  31  37  38  41  42  43  44  45  46  47 0
 3-21G
 ****
 48 0
 3-21G
 ****


