%nproc=1
%NoSave
%Mem=1900MB
#P OB98/GEN NMR

erre ene a

0 1
  C     -547.423     -48.754    -537.547
  O     -546.622     -49.095    -536.429
  P     -545.718     -47.937    -535.787
  C     -545.467     -48.409    -533.235
  O     -546.228     -47.778    -534.264
  C     -546.352     -49.252    -532.332
  O     -546.871     -50.387    -533.081
  C     -545.666     -49.835    -531.128
  O     -545.561     -48.883    -530.070
  C     -546.615     -50.975    -530.746
  O     -547.735     -50.437    -529.994
  C     -547.100     -51.457    -532.134
  N     -547.565     -56.428    -533.064
  C     -548.493     -55.517    -532.591
  N     -549.759     -55.991    -532.365
  N     -548.242     -54.255    -532.374
  C     -546.979     -53.906    -532.674
  C     -545.954     -54.717    -533.130
  C     -546.241     -56.122    -533.333
  O     -545.440     -56.983    -533.677
  N     -544.801     -53.995    -533.330
  C     -545.111     -52.747    -533.048
  N     -546.426     -52.652    -532.596
  O     -546.263     -46.605    -536.493
  O     -544.252     -48.102    -535.974
  H     -548.403     -51.139    -529.950
  H     -545.589     -45.914    -536.503
  H     -547.822     -57.388    -533.217
  H     -544.457     -51.897    -533.138
  H     -548.183     -51.650    -532.130
  H     -546.143     -51.747    -530.134
  H     -550.047     -56.914    -532.651
  H     -544.684     -50.267    -531.392
  H     -550.466     -55.330    -532.073
  H     -547.224     -48.638    -532.039
  H     -544.986     -47.640    -532.634
  H     -544.687     -49.032    -533.711
  P     -544.178     -48.019    -530.008
  C     -544.750     -45.494    -529.816
  O     -544.561     -46.613    -530.673
  O     -543.274     -48.737    -531.140
  O     -543.538     -47.997    -528.678
  H     -542.333     -48.591    -530.938
  H     -544.056     -45.521    -528.964
  H     -545.777     -45.481    -529.441
  H     -544.554     -44.577    -530.376
  H     -547.969     -49.615    -537.870
  H     -546.796     -48.410    -538.343
  H     -548.108     -47.979    -537.272

 3  4  5  6  7  8  9  10  11  12  23  26  30  31  33  0
 6-311+G(2d,p)
 ****
 35  36  37  38 0
 6-311+G(2d,p)
 ****
 1  2  13  14  15  16  17  18  19  20  21  22  24  25  27  28  29 0
 3-21G
 ****
 32  34  39  40  41  42  43  44  45  46  47  48  49 0
 3-21G
 ****


