%nproc=1
%NoSave
%Mem=1900MB
#P OB98/GEN NMR

erre ene a

0 1
  C      674.620    -896.450    -290.692
  O      674.109    -895.220    -290.225
  H      674.954    -897.050    -289.829
  H      675.459    -896.300    -291.369
  H      673.822    -897.010    -291.205
  P      673.663    -894.130    -291.309
  C      671.180    -894.840    -291.237
  O      672.366    -894.770    -292.001
  C      669.960    -894.980    -292.156
  O      669.798    -893.820    -292.987
  C      670.044    -896.160    -293.135
  O      669.836    -897.430    -292.518
  C      668.921    -895.780    -294.082
  O      667.648    -896.080    -293.477
  C      669.145    -894.250    -294.209
  N      669.917    -893.890    -295.380
  C      669.285    -894.030    -296.623
  O      668.144    -894.450    -296.706
  N      669.996    -893.730    -297.766
  C      671.229    -893.330    -297.674
  N      671.892    -893.080    -298.837
  C      671.931    -893.130    -296.387
  C      671.216    -893.440    -295.300
  O      674.722    -893.650    -292.237
  O      673.010    -892.950    -290.435
  H      667.674    -897.010    -293.192
  H      672.713    -892.250    -291.054
  H      672.943    -892.830    -296.371
  H      671.670    -893.350    -294.319
  H      668.173    -893.740    -294.259
  H      668.965    -896.330    -295.030
  H      670.984    -896.150    -293.688
  H      669.059    -895.060    -291.517
  H      671.394    -893.260    -299.690
  H      671.108    -893.930    -290.626
  H      672.904    -893.040    -298.857
  H      671.212    -895.710    -290.562
  P      670.263    -898.750    -293.337
  C      672.819    -898.310    -293.549
  O      671.567    -898.370    -294.199
  O      669.106    -898.850    -294.439
  O      670.417    -900.000    -292.516
  H      668.398    -899.460    -294.134
  H      673.576    -898.046    -294.257
  H      673.046    -899.265    -293.123
  H      672.784    -897.573    -292.774

 6  7  8  9  10  11  12  13  14  15  16  26  30  31  32  33  35 0
 6-311+G(2d,p)
 ****
 37  38 0
 6-311+G(2d,p)
 ****
 1  2  3  4  5  17  18  19  20  21  22  23  24  25 0
 3-21G
 ****
 27  28  29  34  36  39  40  41  42  43  44  45  46 0
 3-21G
 ****


