%nproc=1
%NoSave
%Mem=1900MB
#P OB98/GEN NMR

erre ene a

0 1
  C      227.357    -125.820     229.377
  O      226.766    -126.957     230.012
  P      225.410    -126.696     230.839
  C      225.860    -128.582     232.577
  O      225.008    -128.075     231.557
  C      225.323    -129.903     233.122
  O      223.984    -129.750     233.631
  C      225.224    -131.016     232.084
  O      226.484    -131.626     231.847
  C      224.273    -131.982     232.776
  O      225.003    -132.807     233.704
  C      223.322    -131.032     233.529
  N      218.497    -132.555     233.223
  C      219.515    -132.996     234.044
  N      219.189    -133.963     234.936
  N      220.740    -132.533     234.002
  C      220.908    -131.549     233.084
  C      219.982    -131.027     232.215
  C      218.637    -131.571     232.247
  O      217.711    -131.238     231.521
  N      220.525    -130.030     231.437
  C      221.768    -129.937     231.864
  N      222.056    -130.842     232.853
  O      224.310    -126.548     229.682
  O      225.459    -125.492     231.721
  H      224.366    -133.447     234.075
  H      223.570    -125.992     229.993
  H      217.576    -132.950     233.291
  H      222.497    -129.224     231.493
  H      223.126    -131.379     234.547
  H      223.778    -132.657     232.074
  H      218.254    -134.310     235.070
  H      224.764    -130.645     231.156
  H      219.917    -134.272     235.570
  H      225.974    -130.220     233.948
  H      225.932    -127.857     233.390
  H      226.869    -128.705     232.169
  P      227.046    -131.588     230.346
  C      228.195    -133.827     229.701
  O      228.313    -132.567     230.341
  O      227.686    -130.126     230.233
  O      226.017    -131.835     229.289
  H      227.657    -129.810     229.309
  H      227.669    -133.744     228.748
  H      227.656    -134.516     230.359
  H      229.200    -134.225     229.516
  H      228.246    -126.121     228.863
  H      227.603    -125.086     230.116
  H      226.664    -125.402     228.677

 3  4  5  6  7  8  9  10  11  12  23  26  30  31  33  0
 6-311+G(2d,p)
 ****
 35  36  37  38 0
 6-311+G(2d,p)
 ****
 1  2  13  14  15  16  17  18  19  20  21  22  24  25  27  28  29 0
 3-21G
 ****
 32  34  39  40  41  42  43  44  45  46  47  48  49 0
 3-21G
 ****


