%nproc=1
%NoSave
%Mem=1900MB
#P OB98/GEN NMR

erre ene a

0 1
  C      105.145    -154.429      54.174
  O      104.328    -153.721      55.084
  H      104.822    -155.472      54.153
  H      106.192    -154.392      54.486
  H      105.042    -154.012      53.168
  P      104.673    -152.186      55.384
  C      102.173    -151.534      55.280
  O      103.365    -151.543      56.051
  C      101.070    -150.740      55.991
  O      100.685    -151.450      57.202
  C      101.498    -149.323      56.410
  O      100.326    -148.499      56.385
  C      101.957    -149.560      57.835
  O      102.091    -148.352      58.541
  C      100.887    -150.547      58.310
  N      101.272    -151.249      59.524
  C      101.308    -150.486      60.694
  O      101.035    -149.286      60.661
  N      101.682    -151.093      61.865
  C      102.053    -152.335      61.857
  N      102.426    -152.872      63.049
  C      102.087    -153.160      60.632
  C      101.683    -152.561      59.512
  O      105.238    -151.412      54.241
  O      105.706    -152.254      56.607
  H      102.814    -147.803      58.163
  H      106.608    -152.073      56.286
  H      102.423    -154.185      60.674
  H      101.673    -153.085      58.562
  H       99.935    -150.033      58.493
  H      102.941    -150.038      57.847
  H      102.270    -148.902      55.763
  H      100.185    -150.711      55.344
  H      102.398    -152.267      63.861
  H      101.859    -152.574      55.148
  H      102.753    -153.820      63.161
  H      102.364    -151.097      54.295
  P      100.124    -147.303      55.337
  C       97.583    -147.166      55.758
  O       98.821    -146.461      55.737
  O      100.152    -147.738      53.907
  O      101.327    -146.286      55.630
  H      101.574    -145.836      54.801
  H       96.796    -146.497      56.038
  H       97.640    -147.966      56.467
  H       97.383    -147.565      54.785

 6  7  8  9  10  11  12  13  14  15  16  26  30  31  32  33  35 0
 6-311+G(2d,p)
 ****
 37  38 0
 6-311+G(2d,p)
 ****
 1  2  3  4  5  17  18  19  20  21  22  23  24  25 0
 3-21G
 ****
 27  28  29  34  36  39  40  41  42  43  44  45  46 0
 3-21G
 ****


