%nproc=1
%NoSave
%Mem=1900MB
#P OB98/GEN NMR

erre ene a

0 1
  C      259.373     222.084      87.884
  O      260.239     221.025      88.241
  H      258.427     221.662      87.536
  H      259.817     222.674      87.075
  H      259.178     222.728      88.751
  P      261.624     221.424      88.943
  C      263.661     222.925      88.245
  O      262.504     222.209      87.844
  C      264.207     223.728      87.064
  O      263.228     224.653      86.557
  C      265.394     224.612      87.416
  O      266.573     223.877      87.659
  C      265.460     225.490      86.173
  O      266.096     224.802      85.087
  C      263.954     225.717      85.878
  N      263.490     227.032      86.284
  C      263.772     228.075      85.392
  O      264.373     227.848      84.336
  N      263.403     229.357      85.737
  C      262.784     229.567      86.856
  N      262.448     230.853      87.147
  C      262.440     228.492      87.809
  C      262.826     227.265      87.467
  O      262.374     220.014      89.058
  O      261.494     222.167      90.233
  H      266.984     224.546      85.407
  H      262.436     219.538      88.213
  H      261.912     228.720      88.726
  H      262.615     226.420      88.111
  H      263.754     225.592      84.803
  H      266.028     226.405      86.347
  H      265.144     225.255      88.270
  H      264.459     223.019      86.260
  H      262.717     231.569      86.473
  H      264.426     222.252      88.641
  H      261.994     231.145      87.997
  H      263.366     223.602      89.054
  P      267.825     224.563      88.396
  C      269.409     226.517      87.858
  O      268.457     225.593      87.340
  O      268.801     223.612      89.000
  O      267.131     225.549      89.460
  H      266.552     226.223      89.067
  H      269.759     227.149      87.068
  H      270.234     225.981      88.279
  H      268.949     227.116      88.616

 6  7  8  9  10  11  12  13  14  15  16  26  30  31  32  33  35 0
 6-311+G(2d,p)
 ****
 37  38 0
 6-311+G(2d,p)
 ****
 1  2  3  4  5  17  18  19  20  21  22  23  24  25 0
 3-21G
 ****
 27  28  29  34  36  39  40  41  42  43  44  45  46 0
 3-21G
 ****


