%nproc=1
%NoSave
%Mem=1900MB
#P OB98/GEN NMR

erre ene a

0 1
  C      171.766    -147.503      56.328
  O      170.683    -146.674      56.703
  H      171.865    -148.304      57.064
  H      172.689    -146.918      56.319
  H      171.594    -147.946      55.343
  P      170.151    -145.636      55.600
  C      171.950    -143.868      56.212
  O      170.567    -144.173      56.116
  C      172.209    -142.435      55.759
  O      173.596    -142.087      55.956
  C      171.905    -142.175      54.286
  O      170.524    -141.917      54.075
  C      172.738    -140.928      54.043
  O      172.063    -139.777      54.596
  C      174.006    -141.228      54.853
  N      177.571    -140.683      51.286
  C      176.630    -139.780      51.745
  N      176.636    -138.560      51.165
  N      175.760    -140.046      52.683
  C      175.855    -141.313      53.156
  C      176.737    -142.299      52.777
  C      177.705    -141.985      51.752
  O      178.566    -142.747      51.318
  N      176.532    -143.457      53.480
  C      175.511    -143.178      54.266
  N      175.061    -141.891      54.105
  O      168.563    -145.677      55.816
  O      170.516    -145.959      54.192
  H      172.582    -138.992      54.340
  H      168.164    -146.222      55.111
  H      178.211    -140.429      50.554
  H      175.066    -143.867      54.971
  H      174.446    -140.324      55.288
  H      172.892    -140.724      52.982
  H      177.264    -138.296      50.422
  H      172.268    -142.991      53.648
  H      175.958    -137.881      51.487
  H      171.614    -141.770      56.398
  H      172.513    -144.559      55.574
  H      172.271    -143.995      57.250
  P      169.770    -142.727      52.914
  C      169.906    -140.540      51.526
  O      169.104    -141.637      51.939
  O      168.516    -143.355      53.684
  O      170.581    -143.780      52.242
  H      168.614    -144.326      53.743
  H      169.334    -139.902      50.885
  H      170.762    -140.903      50.997
  H      170.226    -139.989      52.385

 6  7  8  9  10  11  12  13  14  15  26  29  33  34 0
 6-311+G(2d,p)
 ****
 36  38  39  40  41 0
 6-311+G(2d,p)
 ****
 1  2  3  4  5  16  17  18  19  20  21  22  23  24  25 0
 3-21G
 ****
 27  28  30  31  32  35  37  42  43  44  45  46  47 0
 3-21G
 ****
 48  49 0
 3-21G
 ****


