%nproc=1
%NoSave
%Mem=1900MB
#P OB98/GEN NMR

erre ene a

0 1
  C      -53.632      83.359     585.492
  O      -55.043      83.265     585.587
  H      -53.252      83.851     586.392
  H      -53.340      83.956     584.622
  H      -53.190      82.362     585.419
  P      -55.854      82.721     584.317
  C      -57.953      83.111     585.780
  O      -57.350      83.262     584.497
  C      -59.131      84.072     585.921
  O      -58.662      85.434     585.977
  C      -60.096      84.013     584.744
  O      -60.909      82.859     584.816
  C      -60.818      85.338     584.899
  O      -61.836      85.259     585.908
  C      -59.666      86.267     585.350
  N      -59.095      87.034     584.248
  C      -59.658      88.294     584.022
  O      -60.575      88.704     584.730
  N      -59.179      89.046     582.975
  C      -58.216      88.593     582.237
  N      -57.788      89.385     581.217
  C      -57.584      87.274     582.449
  C      -58.074      86.555     583.458
  O      -55.757      81.254     584.031
  O      -55.291      83.607     583.106
  H      -62.433      86.016     585.743
  H      -54.516      83.176     582.699
  H      -56.781      86.940     581.811
  H      -57.664      85.575     583.687
  H      -60.015      86.972     586.114
  H      -61.295      85.646     583.972
  H      -59.539      84.038     583.799
  H      -59.646      83.851     586.865
  H      -58.257      90.280     581.103
  H      -57.187      83.344     586.527
  H      -56.989      89.176     580.636
  H      -58.287      82.080     585.933
  P      -61.305      82.055     583.485
  C      -63.169      80.885     584.830
  O      -62.852      81.655     583.675
  O      -60.390      80.934     583.122
  O      -61.370      83.209     582.372
  H      -60.464      83.511     582.114
  H      -64.220      80.683     584.847
  H      -62.897      81.432     585.709
  H      -62.628      79.962     584.803

 6  7  8  9  10  11  12  13  14  15  16  26  30  31  32  33  35 0
 6-311+G(2d,p)
 ****
 37  38 0
 6-311+G(2d,p)
 ****
 1  2  3  4  5  17  18  19  20  21  22  23  24  25 0
 3-21G
 ****
 27  28  29  34  36  39  40  41  42  43  44  45  46 0
 3-21G
 ****


