%nproc=1
%NoSave
%Mem=1900MB
#P OB98/GEN NMR

erre ene a

0 1
  C        5.973     -91.874       2.232
  O        4.664     -92.163       1.781
  H        6.451     -92.806       2.542
  H        5.924     -91.201       3.092
  H        6.568     -91.420       1.435
  P        3.903     -91.002       0.975
  C        4.295     -89.829      -1.307
  O        4.852     -90.606      -0.258
  C        5.386     -89.028      -2.010
  O        5.960     -88.058      -1.106
  C        6.547     -89.869      -2.530
  O        6.251     -90.441      -3.797
  C        7.631     -88.811      -2.649
  O        7.407     -88.017      -3.834
  C        7.383     -87.960      -1.396
  N       11.927     -88.003       0.856
  C       11.560     -87.532      -0.390
  N       12.546     -87.003      -1.146
  N       10.339     -87.576      -0.856
  C        9.462     -88.153       0.000
  C        9.706     -88.663       1.255
  C       11.056     -88.592       1.763
  O       11.431     -88.986       2.865
  N        8.567     -89.169       1.824
  C        7.640     -88.985       0.905
  N        8.133     -88.375      -0.222
  O        4.023     -89.749       1.967
  O        2.481     -91.291       0.636
  H        7.291     -88.638      -4.576
  H        3.170     -89.627       2.425
  H       12.883     -87.953       1.162
  H        6.602     -89.267       1.009
  H        7.612     -86.901      -1.561
  H        8.630     -89.240      -2.739
  H       13.511     -86.958      -0.858
  H        6.855     -90.630      -1.803
  H       12.299     -86.648      -2.062
  H        4.916     -88.469      -2.830
  H        3.552     -89.143      -0.886
  H        3.802     -90.496      -2.022
  P        7.016     -91.786      -4.220
  C        6.878     -94.222      -3.341
  O        6.807     -92.839      -3.024
  O        8.556     -91.370      -4.087
  O        6.706     -92.292      -5.586
  H        8.969     -91.335      -4.972
  H        6.721     -94.800      -2.454
  H        7.843     -94.446      -3.747
  H        6.124     -94.462      -4.061

 6  7  8  9  10  11  12  13  14  15  26  29  33  34 0
 6-311+G(2d,p)
 ****
 36  38  39  40  41 0
 6-311+G(2d,p)
 ****
 1  2  3  4  5  16  17  18  19  20  21  22  23  24  25 0
 3-21G
 ****
 27  28  30  31  32  35  37  42  43  44  45  46  47 0
 3-21G
 ****
 48  49 0
 3-21G
 ****


