%nproc=1
%NoSave
%Mem=1900MB
#P OB98/GEN NMR

erre ene a

0 1
  C       92.086    -380.566    -455.587
  O       92.863    -379.787    -454.700
  P       94.054    -380.518    -453.910
  C       94.000    -382.681    -452.458
  O       93.379    -381.446    -452.795
  C       93.032    -383.533    -451.634
  O       91.964    -384.035    -452.468
  C       93.681    -384.768    -451.017
  O       94.422    -384.437    -449.855
  C       92.470    -385.646    -450.736
  O       91.848    -385.283    -449.494
  C       91.549    -385.305    -451.929
  N       91.542    -386.353    -452.946
  C       90.813    -387.498    -452.636
  O       90.223    -387.645    -451.567
  N       90.817    -388.483    -453.586
  C       91.509    -388.462    -454.763
  O       91.516    -389.403    -455.547
  C       92.287    -387.239    -455.021
  C       92.272    -386.260    -454.113
  O       94.738    -379.341    -453.069
  O       95.037    -381.219    -454.784
  H       91.491    -384.380    -449.612
  H       95.702    -379.488    -453.016
  H       90.273    -389.310    -453.390
  H       92.846    -387.190    -455.944
  H       92.849    -385.360    -454.281
  H       90.520    -385.161    -451.579
  H       92.735    -386.703    -450.663
  H       94.322    -385.265    -451.757
  H       92.590    -382.902    -450.852
  H       94.905    -382.486    -451.873
  H       94.282    -383.203    -453.375
  P       95.757    -385.289    -449.571
  C       96.135    -387.862    -449.321
  O       95.243    -386.770    -449.252
  O       96.203    -384.682    -448.158
  O       96.768    -385.160    -450.658
  H       95.440    -384.417    -447.616
  H       97.136    -387.577    -448.989
  H       96.182    -388.228    -450.346
  H       95.760    -388.661    -448.675
  H       91.336    -379.951    -456.039
  H       91.617    -381.361    -455.046
  H       92.717    -380.976    -456.348

 3  4  5  6  7  8  9  10  11  12  13  23  28  29  30  31  32 0
 6-311+G(2d,p)
 ****
 33  34 0
 6-311+G(2d,p)
 ****
 1  2  14  15  16  17  18  19  20  21  22  24  25  26 0
 3-21G
 ****
 27  35  36  37  38  39  40  41  42  43  44  45 0
 3-21G
 ****


