%nproc=1
%NoSave
%Mem=1900MB
#P OB98/GEN NMR

erre ene a

0 1
  C      521.816     116.514    -276.632
  O      522.683     116.874    -275.562
  P      523.169     115.880    -274.407
  C      525.561     115.270    -275.291
  O      524.767     115.944    -274.329
  C      526.520     114.235    -274.670
  O      527.377     113.676    -275.709
  C      527.449     114.904    -273.657
  O      527.007     115.128    -272.328
  C      528.753     114.131    -273.757
  O      528.841     113.082    -272.794
  C      528.703     113.545    -275.172
  N      532.992     113.041    -277.930
  C      532.393     112.141    -277.080
  N      533.039     110.966    -276.895
  N      531.269     112.370    -276.448
  C      530.778     113.616    -276.657
  C      531.293     114.603    -277.462
  C      532.508     114.319    -278.202
  O      533.072     115.082    -278.972
  N      530.533     115.749    -277.398
  C      529.569     115.455    -276.543
  N      529.677     114.169    -276.066
  O      522.543     114.524    -274.422
  O      522.691     116.619    -273.058
  H      528.856     113.484    -271.907
  H      522.469     115.916    -272.415
  H      533.845     112.809    -278.407
  H      528.783     116.126    -276.241
  H      528.935     112.474    -275.165
  H      529.610     114.796    -273.580
  H      533.959     110.774    -277.256
  H      527.674     115.904    -274.048
  H      532.714     110.393    -276.108
  H      525.962     113.391    -274.255
  H      526.121     116.033    -275.838
  H      524.917     114.777    -276.031
  P      526.672     116.548    -271.666
  C      525.217     118.099    -273.093
  O      525.233     117.007    -272.186
  O      527.656     117.566    -272.417
  O      526.864     116.615    -270.185
  H      527.724     118.405    -271.917
  H      524.205     118.513    -273.132
  H      525.494     117.756    -274.093
  H      525.910     118.885    -272.776
  H      521.653     117.365    -277.260
  H      520.881     116.178    -276.236
  H      522.263     115.728    -277.205

 3  4  5  6  7  8  9  10  11  12  23  26  30  31 0
 6-311+G(2d,p)
 ****
 33  35  36  37  38 0
 6-311+G(2d,p)
 ****
 1  2  13  14  15  16  17  18  19  20  21  22  24  25 0
 3-21G
 ****
 27  28  29  32  34  39  40  41  42  43  44  45  46  47  48  49 0
 3-21G
 ****


