%nproc=1
%NoSave
%Mem=1900MB
#P OB98/GEN NMR

erre ene a

0 1
  C      176.426    -298.469    -446.282
  O      175.494    -299.201    -445.512
  H      175.890    -297.714    -446.860
  H      176.950    -299.137    -446.973
  H      177.148    -297.969    -445.631
  P      176.087    -300.353    -444.568
  C      177.646    -302.383    -445.024
  O      176.684    -301.475    -445.546
  C      178.352    -303.100    -446.170
  O      179.088    -302.141    -446.965
  C      179.381    -304.126    -445.716
  O      178.786    -305.341    -445.305
  C      180.233    -304.260    -446.968
  O      179.648    -305.176    -447.904
  C      180.220    -302.839    -447.536
  N      184.149    -300.315    -449.594
  C      183.032    -300.840    -450.140
  N      182.025    -301.489    -449.518
  C      182.240    -301.542    -448.194
  C      183.331    -301.046    -447.496
  C      184.321    -300.402    -448.255
  N      185.471    -299.885    -447.705
  N      183.213    -301.326    -446.148
  C      182.072    -301.974    -446.034
  N      181.448    -302.125    -447.241
  O      174.771    -301.037    -443.964
  O      177.010    -299.881    -443.498
  H      180.173    -305.096    -448.726
  H      174.615    -300.699    -443.059
  H      182.941    -300.738    -451.218
  H      181.661    -302.356    -445.106
  H      180.093    -302.826    -448.625
  H      181.228    -304.630    -446.722
  H      180.000    -303.707    -444.911
  H      177.593    -303.565    -446.815
  H      177.142    -303.123    -444.392
  H      178.367    -301.827    -444.415
  H      186.170    -299.499    -448.319
  H      185.660    -300.046    -446.725
  P      179.751    -306.487    -444.728
  C      181.957    -307.574    -445.590
  O      180.740    -306.911    -445.912
  O      178.786    -307.754    -444.563
  O      180.433    -306.137    -443.450
  H      179.049    -308.269    -443.775
  H      182.497    -307.785    -446.489
  H      181.740    -308.490    -445.081
  H      182.549    -306.946    -444.958

 6  7  8  9  10  11  12  13  14  15  25  28  32  33  34  35 0
 6-311+G(2d,p)
 ****
 36  37  40 0
 6-311+G(2d,p)
 ****
 1  2  3  4  5  16  17  18  19  20  21  22  23  24 0
 3-21G
 ****
 26  27  29  30  31  38  39 41  42  43  44  45  46  47  48 0
 3-21G
 ****


