%nproc=1
%NoSave
%Mem=1900MB
#P OB98/GEN NMR

erre ene a

0 1
  C      276.137    -129.430    -372.515
  O      277.382    -129.853    -373.071
  P      277.832    -131.382    -372.926
  C      278.446    -131.726    -375.414
  O      277.624    -132.132    -374.326
  C      278.993    -132.955    -376.145
  O      280.010    -133.626    -375.363
  C      277.933    -134.020    -376.395
  O      276.932    -133.707    -377.340
  C      278.773    -135.259    -376.654
  O      279.222    -135.318    -378.005
  C      279.964    -135.031    -375.695
  N      279.885    -135.858    -374.489
  C      280.832    -136.871    -374.378
  O      281.672    -137.109    -375.245
  N      280.760    -137.632    -373.242
  C      279.835    -137.505    -372.248
  O      279.803    -138.232    -371.261
  C      278.844    -136.434    -372.434
  C      278.910    -135.672    -373.526
  O      277.302    -132.105    -371.732
  O      279.434    -131.270    -372.836
  H      279.609    -134.451    -378.223
  H      279.739    -131.908    -372.161
  H      281.445    -138.367    -373.139
  H      278.090    -136.309    -371.667
  H      278.192    -134.875    -373.680
  H      280.911    -135.268    -376.197
  H      278.206    -136.177    -376.466
  H      277.401    -134.190    -375.448
  H      279.460    -132.627    -377.078
  H      279.268    -131.108    -375.046
  H      277.859    -131.091    -376.087
  P      275.369    -133.632    -376.974
  C      274.934    -131.271    -377.952
  O      274.969    -132.091    -376.807
  O      274.857    -134.589    -375.951
  O      274.697    -133.992    -378.391
  H      273.867    -134.472    -378.221
  H      274.659    -130.255    -377.650
  H      274.192    -131.634    -378.666
  H      275.921    -131.239    -378.424
  H      275.998    -128.386    -372.704
  H      276.140    -129.604    -371.459
  H      275.339    -129.983    -372.965

 3  4  5  6  7  8  9  10  11  12  13  23  28  29  30  31  32 0
 6-311+G(2d,p)
 ****
 33  34 0
 6-311+G(2d,p)
 ****
 1  2  14  15  16  17  18  19  20  21  22  24  25  26  27 0
 3-21G
 ****
 35  36  37  38  39  40  41  42  43  44  45 0
 3-21G
 ****


