%nproc=1
%NoSave
%Mem=1900MB
#P OB98/GEN NMR

erre ene a

0 1
  C     -112.382     -57.240      22.139
  O     -111.881     -57.766      23.350
  H     -112.864     -56.281      22.348
  H     -113.121     -57.915      21.701
  H     -111.565     -57.071      21.432
  P     -111.225     -59.228      23.333
  C     -108.861     -58.991      22.312
  O     -109.644     -59.023      23.496
  C     -107.943     -60.217      22.230
  O     -107.281     -60.222      20.934
  C     -106.842     -60.239      23.304
  O     -106.549     -61.613      23.586
  C     -105.691     -59.587      22.564
  O     -104.470     -59.788      23.231
  C     -105.858     -60.218      21.180
  N     -105.126     -59.503      20.146
  C     -103.768     -59.805      20.029
  O     -103.247     -60.627      20.783
  N     -103.025     -59.148      19.082
  C     -103.575     -58.221      18.362
  N     -102.781     -57.596      17.453
  C     -104.994     -57.829      18.495
  C     -105.705     -58.507      19.394
  O     -111.629     -60.107      22.198
  O     -111.654     -59.860      24.740
  H     -103.724     -59.394      22.723
  H     -112.364     -60.515      24.605
  H     -105.400     -57.036      17.885
  H     -106.755     -58.291      19.565
  H     -105.522     -61.263      21.184
  H     -105.838     -58.504      22.504
  H     -107.128     -59.717      24.220
  H     -108.559     -61.122      22.276
  H     -101.813     -57.889      17.403
  H     -108.261     -58.076      22.339
  H     -103.093     -56.847      16.853
  H     -109.511     -58.960      21.431
  P     -106.828     -62.288      25.014
  C     -109.299     -62.764      24.445
  O     -108.058     -63.307      24.886
  O     -106.965     -61.307      26.133
  O     -105.573     -63.251      25.270
  H     -105.404     -63.305      26.229
  H     -110.033     -63.541      24.402
  H     -109.175     -62.336      23.472
  H     -109.620     -62.007      25.129

 6  7  8  9  10  11  12  13  14  15  16  26  30  31  32  33  35 0
 6-311+G(2d,p)
 ****
 37  38 0
 6-311+G(2d,p)
 ****
 1  2  3  4  5  17  18  19  20  21  22  23  24  25 0
 3-21G
 ****
 27  28  29  34  36  39  40  41  42  43  44  45  46 0
 3-21G
 ****


