%nproc=1
%NoSave
%Mem=1900MB
#P OB98/GEN NMR

erre ene a

0 1
  C      666.203    -891.840    -275.203
  O      665.451    -891.820    -273.977
  P      664.092    -892.670    -273.916
  C      664.576    -894.790    -272.478
  O      664.472    -894.220    -273.778
  C      665.942    -895.470    -272.293
  O      667.020    -894.530    -272.368
  C      666.095    -896.170    -270.946
  O      665.509    -897.450    -270.976
  C      667.627    -896.280    -270.880
  O      668.070    -897.400    -271.660
  C      668.081    -894.960    -271.497
  N      671.778    -892.340    -269.080
  C      671.827    -893.340    -269.990
  N      670.802    -894.000    -270.572
  C      669.627    -893.510    -270.155
  C      669.405    -892.490    -269.232
  C      670.544    -891.880    -268.683
  N      670.495    -890.860    -267.768
  N      668.059    -892.270    -269.039
  C      667.459    -893.150    -269.833
  N      668.357    -893.920    -270.521
  O      663.523    -892.550    -275.412
  O      663.106    -892.160    -272.912
  H      667.748    -897.250    -272.574
  H      662.556    -892.530    -275.394
  H      672.818    -893.660    -270.284
  H      666.401    -893.250    -269.947
  H      668.989    -895.080    -272.098
  H      667.964    -896.460    -269.840
  H      665.724    -895.540    -270.122
  H      666.066    -896.190    -273.114
  H      663.777    -895.520    -272.322
  H      671.344    -890.460    -267.441
  H      669.587    -890.520    -267.500
  H      664.418    -893.990    -271.738
  P      663.896    -897.510    -270.927
  C      663.514    -899.420    -272.628
  O      663.444    -898.050    -272.363
  O      663.469    -895.960    -270.938
  O      663.333    -898.230    -269.749
  H      662.632    -895.830    -270.467
  H      662.893    -899.650    -273.509
  H      663.121    -900.000    -271.788
  H      664.534    -899.730    -272.830
  H      667.077    -891.233    -275.095
  H      665.599    -891.457    -275.998
  H      666.493    -892.845    -275.427

 3  4  5  6  7  8  9  10  11  12  22  25  29  30  31  32 0
 6-311+G(2d,p)
 ****
 33  36  37 0
 6-311+G(2d,p)
 ****
 1  2  13  14  15  16  17  18  19  20  21  23  24  26 0
 3-21G
 ****
 27  28  34  35  38  39  40  41  42  43  44  45  46  47  48 0
 3-21G
 ****


