%nproc=1
%NoSave
%Mem=1900MB
#P OB98/GEN NMR

erre ene a

0 1
  C     -737.683    -515.686     190.639
  O     -737.417    -515.468     192.007
  H     -738.758    -515.631     190.451
  H     -737.184    -514.906     190.055
  H     -737.297    -516.664     190.328
  P     -738.053    -516.515     193.047
  C     -740.177    -515.011     192.993
  O     -739.647    -516.328     192.934
  C     -741.610    -515.060     193.504
  O     -742.444    -515.795     192.586
  C     -741.776    -515.748     194.850
  O     -741.462    -514.892     195.939
  C     -743.262    -516.070     194.823
  O     -744.026    -514.881     195.110
  C     -743.458    -516.490     193.363
  N     -745.794    -520.706     191.637
  C     -746.208    -519.424     191.730
  N     -745.522    -518.362     192.209
  C     -744.294    -518.723     192.610
  C     -743.737    -519.990     192.574
  C     -744.548    -521.021     192.049
  N     -744.137    -522.331     191.962
  N     -742.463    -519.985     193.107
  C     -742.243    -518.724     193.420
  N     -743.323    -517.925     193.147
  O     -737.717    -515.879     194.476
  O     -737.577    -517.925     192.921
  H     -744.965    -515.124     195.023
  H     -737.765    -516.567     195.170
  H     -747.220    -519.221     191.390
  H     -741.321    -518.340     193.842
  H     -744.436    -516.195     192.970
  H     -743.553    -516.825     195.561
  H     -741.205    -516.684     194.897
  H     -741.992    -514.029     193.548
  H     -740.162    -514.571     191.990
  H     -744.850    -523.011     191.746
  H     -743.270    -522.596     192.408
  H     -739.555    -514.403     193.660
  P     -740.443    -515.455     197.047
  C     -742.370    -515.315     198.797
  O     -741.355    -516.115     198.183
  O     -739.888    -514.118     197.739
  O     -739.344    -516.312     196.512
  H     -739.004    -514.271     198.119
  H     -742.888    -515.897     199.530
  H     -743.062    -514.983     198.051
  H     -741.919    -514.467     199.269

 6  7  8  9  10  11  12  13  14  15  25  28  32  33  34  35 0
 6-311+G(2d,p)
 ****
 36  39  40 0
 6-311+G(2d,p)
 ****
 1  2  3  4  5  16  17  18  19  20  21  22  23  24 0
 3-21G
 ****
 26  27  29  30  31  37  38  41  42  43  44  45  46  47 0
 3-21G
 ****
 48 0
 3-21G
 ****


