%nproc=1
%NoSave
%Mem=1900MB
#P OB98/GEN NMR

erre ene a

0 1
  C       18.629    -375.544     181.024
  O       17.274    -375.512     181.422
  P       16.460    -376.891     181.491
  C       14.424    -375.892     182.773
  O       14.899    -376.534     181.597
  C       13.011    -375.336     182.541
  O       13.111    -374.103     181.750
  C       12.069    -376.284     181.790
  O       10.746    -376.061     182.300
  C       12.152    -375.781     180.364
  O       11.071    -376.196     179.557
  C       12.229    -374.267     180.619
  N       12.701    -373.517     179.456
  C       11.948    -372.418     179.050
  O       10.924    -372.043     179.616
  N       12.389    -371.777     177.926
  C       13.418    -372.175     177.122
  O       13.682    -371.628     176.055
  C       14.180    -373.351     177.587
  C       13.792    -373.958     178.711
  O       16.813    -377.456     182.949
  O       16.799    -377.867     180.422
  H       11.204    -377.142     179.349
  H       17.507    -378.141     182.891
  H       11.863    -370.971     177.622
  H       15.015    -373.673     176.991
  H       14.317    -374.839     179.076
  H       11.243    -373.890     180.914
  H       13.076    -376.156     179.907
  H       12.349    -377.342     181.891
  H       12.585    -375.049     183.510
  H       15.100    -375.076     183.037
  H       14.423    -376.601     183.609
  P        9.740    -377.323     182.331
  C        8.406    -376.247     184.308
  O        8.385    -376.802     183.014
  O       10.422    -378.220     183.471
  O        9.595    -378.015     181.015
  H       10.712    -377.697     184.236
  H        9.325    -375.687     184.493
  H        8.315    -377.044     185.053
  H        7.552    -375.561     184.418
  H       19.026    -374.550     181.029
  H       18.701    -375.952     180.037
  H       19.186    -376.154     181.704

 3  4  5  6  7  8  9  10  11  12  13  23  28  29  30  31  32 0
 6-311+G(2d,p)
 ****
 33  34 0
 6-311+G(2d,p)
 ****
 1  2  14  15  16  17  18  19  20  21  22  24  25  26 0
 3-21G
 ****
 27  35  36  37  38  39  40  41  42  43  44  45 0
 3-21G
 ****


