%nproc=1
%NoSave
%Mem=1900MB
#P OB98/GEN NMR

erre ene a

0 1
  C      -91.317    -554.664     124.740
  O      -90.079    -554.450     125.381
  H      -91.158    -554.851     123.673
  H      -91.797    -555.543     125.183
  H      -91.969    -553.797     124.874
  P      -89.191    -553.220     124.851
  C      -89.676    -551.678     126.878
  O      -88.694    -552.403     126.145
  C      -89.028    -551.015     128.089
  O      -88.571    -552.055     129.000
  C      -87.830    -550.106     127.766
  O      -88.067    -548.779     128.243
  C      -86.672    -550.704     128.554
  O      -85.832    -549.719     129.155
  C      -87.369    -551.563     129.603
  N      -84.499    -553.312     133.440
  C      -85.509    -552.415     133.420
  N      -86.305    -552.072     132.385
  C      -85.993    -552.783     131.286
  C      -85.002    -553.745     131.162
  C      -84.222    -553.993     132.304
  N      -83.154    -554.870     132.310
  N      -84.976    -554.248     129.872
  C      -85.896    -553.577     129.221
  N      -86.524    -552.662     130.029
  O      -90.275    -552.248     124.179
  O      -88.112    -553.595     123.889
  H      -86.423    -549.069     129.585
  H      -89.961    -551.971     123.300
  H      -85.701    -551.898     134.353
  H      -86.117    -553.664     128.169
  H      -87.652    -550.980     130.493
  H      -86.065    -551.317     127.879
  H      -87.606    -550.080     126.693
  H      -89.800    -550.440     128.623
  H      -90.457    -552.367     127.223
  H      -82.580    -554.896     133.133
  H      -82.877    -555.298     131.437
  H      -90.128    -550.932     126.226
  P      -87.595    -547.570     127.287
  C      -89.137    -545.773     128.374
  O      -87.813    -546.206     128.103
  O      -88.751    -547.524     126.181
  O      -86.245    -547.765     126.685
  H      -88.398    -547.155     125.349
  H      -89.107    -544.854     128.922
  H      -89.644    -546.517     128.952
  H      -89.658    -545.621     127.452

 6  7  8  9  10  11  12  13  14  15  25  28  32  33  34  35 0
 6-311+G(2d,p)
 ****
 36  39  40 0
 6-311+G(2d,p)
 ****
 1  2  3  4  5  16  17  18  19  20  21  22  23  24 0
 3-21G
 ****
 26  27  29  30  31  37  38  41  42  43  44  45  46  47  48 0
 3-21G
 ****


