%nproc=1
%NoSave
%Mem=1900MB
#P OB98/GEN NMR

erre ene a

0 1
  C       22.005     -59.553      43.415
  O       20.683     -59.399      42.939
  H       21.990     -60.212      44.286
  H       22.401     -58.580      43.718
  H       22.647     -59.996      42.648
  P       20.509     -58.746      41.484
  C       21.257     -59.401      39.086
  O       21.403     -59.625      40.480
  C       22.386     -60.084      38.320
  O       23.661     -59.516      38.688
  C       22.496     -61.585      38.569
  O       21.594     -62.318      37.752
  C       23.935     -61.835      38.152
  O       24.027     -61.860      36.711
  C       24.646     -60.588      38.699
  N       28.667     -61.918      41.488
  C       28.483     -61.965      40.119
  N       29.516     -62.441      39.391
  N       27.387     -61.584      39.517
  C       26.430     -61.153      40.373
  C       26.491     -61.066      41.746
  C       27.714     -61.474      42.396
  O       27.931     -61.442      43.605
  N       25.322     -60.581      42.272
  C       24.549     -60.396      41.222
  N       25.173     -60.731      40.045
  O       21.323     -57.371      41.614
  O       19.100     -58.504      41.059
  H       23.470     -61.133      36.377
  H       20.688     -56.639      41.729
  H       29.527     -62.233      41.901
  H       23.537     -60.017      41.257
  H       25.480     -60.274      38.062
  H       24.318     -62.792      38.511
  H       30.380     -62.772      39.792
  H       22.373     -61.830      39.631
  H       29.405     -62.481      38.385
  H       22.236     -59.881      37.251
  H       21.286     -58.323      38.893
  H       20.290     -59.798      38.760
  P       21.194     -63.804      38.207
  C       20.353     -64.863      40.419
  O       21.032     -63.776      39.805
  O       22.555     -64.616      37.983
  O       20.064     -64.417      37.454
  H       22.448     -65.247      37.244
  H       20.321     -64.711      41.478
  H       20.872     -65.774      40.205
  H       19.355     -64.922      40.036

 6  7  8  9  10  11  12  13  14  15  26  29  33  34 0
 6-311+G(2d,p)
 ****
 36  38  39  40  41 0
 6-311+G(2d,p)
 ****
 1  2  3  4  5  16  17  18  19  20  21  22  23  24  25 0
 3-21G
 ****
 27  28  30  31  32  35  37  42  43  44  45  46  47 0
 3-21G
 ****
 48  49 0
 3-21G
 ****


