%nproc=1
%NoSave
%Mem=1900MB
#P OB98/GEN NMR

erre ene a

0 1
  C      102.177      54.353    -109.648
  O      102.389      54.246    -108.234
  P      101.244      54.548    -107.145
  C      101.269      57.122    -107.297
  O      100.520      55.935    -107.506
  C      100.380      58.374    -107.328
  O       99.865      58.593    -108.680
  C       99.162      58.314    -106.382
  O       99.000      59.628    -105.838
  C       98.030      57.962    -107.342
  O       96.743      58.248    -106.831
  C       98.444      58.817    -108.549
  N       97.754      58.509    -109.801
  C       96.569      59.202    -110.079
  O       96.086      60.001    -109.277
  N       95.928      58.954    -111.272
  C       96.419      58.091    -112.109
  N       95.742      57.904    -113.277
  C       97.653      57.326    -111.848
  C       98.261      57.584    -110.691
  O      101.732      54.487    -105.732
  O      100.111      53.443    -107.398
  H       99.718      53.182    -106.542
  H       96.595      57.682    -106.050
  H       98.031      56.622    -112.574
  H       99.191      57.083    -110.436
  H       98.306      59.879    -108.309
  H       98.080      56.892    -107.562
  H       99.282      57.604    -105.558
  H      101.004      59.244    -107.087
  H       94.901      58.457    -113.422
  H      102.018      57.207    -108.093
  H       96.037      57.264    -114.000
  H      101.795      57.053    -106.335
  P       99.561      59.955    -104.369
  C       97.422      58.770    -103.455
  O       98.817      58.976    -103.337
  O       98.851      61.360    -104.050
  O      101.045      60.084    -104.238
  H       99.391      61.852    -103.401
  H       97.212      57.701    -103.346
  H       97.031      59.108    -104.419
  H       96.913      59.314    -102.650
  H      103.081      54.104    -110.164
  H      101.892      55.355    -109.891
  H      101.400      53.680    -109.944

 3  4  5  6  7  8  9  10  11  12  13  24  27  28  29  30  32 0
 6-311+G(2d,p)
 ****
 34  35 0
 6-311+G(2d,p)
 ****
 1  2  14  15  16  17  18  19  20  21  22  23  25  26 0
 3-21G
 ****
 31  33  36  37  38  39  40  41  42  43  44  45  46 0
 3-21G
 ****


