%nproc=1
%NoSave
%Mem=1900MB
#P OB98/GEN NMR

erre ene a

0 1
  C     -210.684    -340.557    -256.278
  O     -211.746    -341.262    -255.663
  H     -210.593    -340.850    -257.325
  H     -210.899    -339.487    -256.225
  H     -209.748    -340.754    -255.747
  P     -211.667    -342.865    -255.729
  C     -212.928    -342.787    -257.998
  O     -211.795    -343.260    -257.280
  C     -212.674    -342.871    -259.499
  O     -211.618    -341.965    -259.879
  C     -212.231    -344.241    -259.992
  O     -213.320    -345.146    -260.119
  C     -211.646    -343.877    -261.352
  O     -212.709    -343.731    -262.313
  C     -210.997    -342.509    -261.077
  N     -206.376    -342.024    -263.263
  C     -207.629    -341.886    -263.763
  N     -208.806    -342.042    -263.123
  C     -208.614    -342.359    -261.832
  C     -207.400    -342.529    -261.185
  C     -206.239    -342.359    -261.962
  N     -204.968    -342.515    -261.447
  N     -207.595    -342.839    -259.855
  C     -208.905    -342.850    -259.698
  N     -209.562    -342.575    -260.868
  O     -213.071    -343.333    -255.112
  O     -210.518    -343.481    -254.999
  H     -213.417    -343.228    -261.870
  H     -212.937    -344.154    -254.604
  H     -207.688    -341.618    -264.813
  H     -209.412    -343.052    -258.764
  H     -211.194    -341.801    -261.887
  H     -210.957    -344.629    -261.739
  H     -211.440    -344.658    -259.358
  H     -213.593    -342.555    -260.015
  H     -213.115    -341.740    -257.723
  H     -204.188    -342.184    -261.990
  H     -204.877    -342.757    -260.465
  H     -213.796    -343.391    -257.723
  P     -213.036    -346.699    -259.816
  C     -212.547    -347.185    -262.324
  O     -212.050    -347.189    -260.990
  O     -214.428    -347.397    -260.187
  O     -212.617    -347.006    -258.418
  H     -214.520    -348.235    -259.695
  H     -211.785    -347.533    -262.990
  H     -212.831    -346.190    -262.596
  H     -213.399    -347.829    -262.389

 6  7  8  9  10  11  12  13  14  15  25  28  32  33  34  35 0
 6-311+G(2d,p)
 ****
 36  39  40 0
 6-311+G(2d,p)
 ****
 1  2  3  4  5  16  17  18  19  20  21  22  23  24 0
 3-21G
 ****
 26  27  29  30  31  37  38  41  42  43  44  45  46  47  48 0
 3-21G
 ****


