%nproc=1
%NoSave
%Mem=1900MB
#P OB98/GEN NMR

erre ene a

0 1
  C     -321.704     -50.219     235.176
  O     -320.701     -50.775     234.351
  H     -321.915     -49.201     234.839
  H     -321.368     -50.183     236.215
  H     -322.620     -50.811     235.101
  P     -320.168     -52.235     234.741
  C     -322.187     -53.724     234.063
  O     -321.455     -53.114     235.118
  C     -322.349     -55.216     234.352
  O     -321.046     -55.839     234.440
  C     -323.034     -55.521     235.674
  O     -324.444     -55.382     235.607
  C     -322.605     -56.961     235.896
  O     -323.460     -57.881     235.204
  C     -321.181     -56.979     235.313
  N     -320.165     -56.988     236.365
  C     -319.746     -58.247     236.788
  O     -320.184     -59.298     236.320
  N     -318.829     -58.261     237.801
  C     -318.340     -57.166     238.451
  O     -317.560     -57.252     239.391
  C     -318.833     -55.863     237.975
  C     -319.712     -55.834     236.971
  O     -319.443     -51.998     236.146
  O     -319.255     -52.860     233.738
  H     -318.477     -52.034     236.029
  H     -324.321     -57.853     235.669
  H     -318.510     -59.163     238.120
  H     -318.465     -54.975     238.471
  H     -320.099     -54.887     236.609
  H     -321.032     -57.871     234.692
  H     -322.640     -57.220     236.951
  H     -322.615     -54.898     236.473
  H     -322.894     -55.674     233.518
  H     -321.648     -53.603     233.120
  H     -323.162     -53.235     233.977
  P     -325.218     -54.950     236.946
  C     -324.368     -52.461     236.842
  O     -324.405     -53.700     237.534
  O     -324.841     -56.171     237.910
  O     -326.678     -54.736     236.736
  H     -323.992     -56.579     237.661
  H     -323.778     -51.761     237.395
  H     -325.363     -52.082     236.735
  H     -323.936     -52.606     235.874

 6  7  8  9  10  11  12  13  14  15  16  27  31  32  33  34  35 0
 6-311+G(2d,p)
 ****
 36  37 0
 6-311+G(2d,p)
 ****
 1  2  3  4  5  17  18  19  20  21  22  23  24  25 0
 3-21G
 ****
 26  28  29  30  38  39  40  41  42  43  44  45 0
 3-21G
 ****


