%nproc=1
%NoSave
%Mem=1900MB
#P OB98/GEN NMR

erre ene a

0 1
  C       18.227      72.752    -183.335
  O       17.518      73.697    -182.559
  H       17.517      72.233    -183.986
  H       18.708      72.014    -182.687
  H       18.978      73.245    -183.958
  P       18.347      74.706    -181.623
  C       19.529      74.573    -179.332
  O       18.692      73.913    -180.272
  C       19.171      74.126    -177.914
  O       17.830      74.545    -177.582
  C       19.193      72.614    -177.724
  O       20.517      72.129    -177.621
  C       18.362      72.474    -176.456
  O       19.155      72.750    -175.292
  C       17.288      73.565    -176.668
  N       16.018      73.028    -177.159
  C       15.004      72.874    -176.217
  O       15.146      73.134    -175.020
  N       13.819      72.378    -176.693
  C       13.592      71.924    -177.959
  O       12.538      71.404    -178.314
  C       14.704      72.086    -178.907
  C       15.850      72.625    -178.470
  O       17.739      76.053    -181.428
  O       19.772      74.807    -182.350
  H       18.547      72.704    -174.530
  H       19.841      75.664    -182.810
  H       13.076      72.248    -176.025
  H       14.558      71.752    -179.923
  H       16.683      72.749    -179.149
  H       17.095      74.094    -175.723
  H       17.954      71.471    -176.339
  H       18.663      72.123    -178.550
  H       19.862      74.621    -177.215
  H       19.375      75.656    -179.421
  H       20.574      74.342    -179.561
  P       20.849      70.621    -178.041
  C       19.676      68.340    -177.826
  O       19.794      69.663    -177.303
  O       22.282      70.216    -177.890
  O       20.400      70.543    -179.575
  H       21.172      70.318    -180.131
  H       18.949      67.796    -177.260
  H       20.622      67.845    -177.761
  H       19.368      68.387    -178.850

 6  7  8  9  10  11  12  13  14  15  16  26  31  32  33  34  35 0
 6-311+G(2d,p)
 ****
 36  37 0
 6-311+G(2d,p)
 ****
 1  2  3  4  5  17  18  19  20  21  22  23  24  25 0
 3-21G
 ****
 27  28  29  30  38  39  40  41  42  43  44  45 0
 3-21G
 ****


