%nproc=1
%NoSave
%Mem=1900MB
#P OB98/GEN NMR

erre ene a

0 1
  C       68.763     199.275    -125.358
  O       68.946     197.923    -125.726
  H       69.703     199.682    -124.978
  H       68.468     199.845    -126.244
  H       67.980     199.371    -124.601
  P       69.087     196.853    -124.540
  C       66.842     196.899    -123.239
  O       67.608     196.285    -124.264
  C       66.106     195.842    -122.417
  O       65.440     196.502    -121.304
  C       65.043     195.058    -123.203
  O       65.075     193.693    -122.772
  C       63.739     195.688    -122.746
  O       62.629     194.806    -122.871
  C       64.073     196.054    -121.304
  N       61.938     197.954    -117.099
  C       62.976     197.114    -117.282
  N       63.519     196.699    -118.445
  C       62.920     197.298    -119.489
  C       61.857     198.182    -119.461
  C       61.344     198.499    -118.189
  N       60.244     199.302    -117.996
  N       61.489     198.535    -120.744
  C       62.298     197.854    -121.532
  N       63.180     197.092    -120.818
  O       69.373     197.786    -123.269
  O       70.147     195.821    -124.725
  H       62.624     194.431    -123.774
  H       70.331     197.948    -123.192
  H       63.424     196.711    -116.377
  H       62.270     197.853    -122.612
  H       63.990     195.199    -120.621
  H       63.537     196.585    -123.344
  H       65.172     195.106    -124.290
  H       66.848     195.159    -121.986
  H       66.105     197.569    -123.695
  H       59.885     199.384    -117.057
  H       59.725     199.623    -118.800
  H       67.503     197.489    -122.596
  P       65.787     192.631    -123.738
  C       68.249     193.145    -123.069
  O       67.184     192.202    -123.084
  O       66.225     193.518    -124.998
  O       64.903     191.496    -124.145
  H       66.186     192.987    -125.814
  H       69.106     192.708    -122.601
  H       67.948     194.014    -122.521
  H       68.493     193.423    -124.073

 6  7  8  9  10  11  12  13  14  15  25  28  32  33  34  35 0
 6-311+G(2d,p)
 ****
 36  39  40 0
 6-311+G(2d,p)
 ****
 1  2  3  4  5  16  17  18  19  20  21  22  23  24 0
 3-21G
 ****
 26  27  29  30  31  37  38  41  42  43  44  45  46  47 0
 3-21G
 ****
 48 0
 3-21G
 ****


