%nproc=1
%NoSave
%Mem=1900MB
#P OB98/GEN NMR

erre ene a

0 1
  C       -0.155     585.337     518.731
  O       -0.859     585.248     519.952
  P       -1.260     583.782     520.484
  C       -3.830     583.280     520.488
  O       -2.618     583.365     519.748
  C       -4.406     584.674     520.687
  O       -4.135     585.512     519.530
  C       -5.927     584.685     520.841
  O       -6.316     584.312     522.147
  C       -6.268     586.133     520.493
  O       -6.087     586.990     521.638
  C       -5.220     586.451     519.402
  N       -5.794     586.438     518.060
  C       -6.187     587.685     517.552
  O       -6.074     588.732     518.185
  N       -6.725     587.660     516.293
  C       -6.961     586.567     515.543
  O       -7.518     586.589     514.432
  C       -6.578     585.264     516.158
  C       -6.016     585.268     517.354
  O       -1.706     584.033     522.003
  O       -0.159     582.766     520.393
  H       -5.107     587.029     521.795
  H       -1.448     583.272     522.560
  H       -6.984     588.550     515.905
  H       -6.747     584.369     515.565
  H       -5.719     584.331     517.824
  H       -4.779     587.456     519.583
  H       -7.312     586.246     520.173
  H       -6.392     584.032     520.094
  H       -3.921     585.133     521.570
  H       -3.610     582.811     521.472
  H       -4.526     582.632     519.953
  P       -7.881     583.974     522.400
  C       -9.243     585.811     523.688
  O       -8.590     585.416     522.496
  O       -7.824     583.423     523.896
  O       -8.437     583.019     521.383
  H       -7.136     583.832     524.435
  H       -8.719     585.427     524.572
  H      -10.261     585.421     523.690
  H       -9.269     586.899     523.732
  H        0.041     586.365     518.507
  H       -0.744     584.907     517.948
  H        0.771     584.807     518.814

 3  4  5  6  7  8  9  10  11  12  13  23  28  29  30  31  32 0
 6-311+G(2d,p)
 ****
 33  34 0
 6-311+G(2d,p)
 ****
 1  2  14  15  16  17  18  19  20  21  22  24  25  26 0
 3-21G
 ****
 27  35  36  37  38  39  40  41  42  43  44  45 0
 3-21G
 ****


