%nproc=1
%NoSave
%Mem=1900MB
#P OB98/GEN NMR

erre ene a

0 1
  C      220.282      31.541     295.178
  O      220.789      31.295     293.879
  P      220.078      30.259     292.885
  C      220.024      31.967     290.958
  O      220.512      30.710     291.404
  C      220.741      32.427     289.689
  O      222.143      32.685     289.988
  C      220.694      31.423     288.525
  O      220.645      32.200     287.324
  C      222.030      30.715     288.650
  O      222.416      30.053     287.450
  C      222.932      31.880     289.081
  N      224.170      31.412     289.700
  C      225.178      30.967     288.834
  O      224.969      30.911     287.619
  N      226.372      30.547     289.366
  C      226.508      30.481     290.653
  N      227.717      30.060     291.121
  C      225.430      30.817     291.599
  C      224.305      31.287     291.064
  O      218.608      30.092     293.082
  O      220.906      28.906     293.086
  H      223.378      29.853     287.503
  H      220.639      28.462     293.934
  H      225.574      30.691     292.664
  H      223.459      31.562     291.680
  H      223.190      32.510     288.222
  H      221.976      29.959     289.444
  H      219.845      30.735     288.577
  H      220.298      33.380     289.377
  H      228.435      29.852     290.439
  H      220.205      32.700     291.751
  H      227.955      30.049     292.101
  H      218.940      31.911     290.796
  P      219.448      32.026     286.271
  C      219.713      34.367     285.260
  O      219.790      32.974     285.020
  O      218.076      32.203     286.834
  O      219.650      30.552     285.671
  H      218.835      30.270     285.219
  H      220.227      34.895     284.450
  H      220.188      34.628     286.210
  H      218.666      34.682     285.282
  H      220.901      32.261     295.672
  H      220.278      30.629     295.738
  H      219.284      31.919     295.106

 3  4  5  6  7  8  9  10  11  12  13  23  27  28  29  30  32 0
 6-311+G(2d,p)
 ****
 34  35 0
 6-311+G(2d,p)
 ****
 1  2  14  15  16  17  18  19  20  21  22  24  25  26 0
 3-21G
 ****
 31  33  36  37  38  39  40  41  42  43  44  45  46 0
 3-21G
 ****


