%nproc=1
%NoSave
%Mem=1900MB
#P OB98/GEN NMR

erre ene a

0 1
  C      117.946     105.500     -65.672
  O      117.173     105.076     -64.544
  P      117.556     105.692     -63.112
  C      119.177     105.103     -61.159
  O      118.756     104.829     -62.492
  C      119.926     103.896     -60.587
  O      119.038     102.784     -60.370
  C      121.011     103.371     -61.510
  O      122.164     104.189     -61.447
  C      121.227     101.958     -60.976
  O      122.237     101.927     -59.954
  C      119.843     101.589     -60.395
  N      119.186     100.527     -61.134
  C      119.774      99.261     -61.036
  O      120.798      99.099     -60.365
  N      119.197      98.216     -61.712
  C      118.148      98.423     -62.446
  N      117.628      97.345     -63.097
  C      117.513      99.749     -62.599
  C      118.081     100.744     -61.923
  O      116.306     105.297     -62.199
  O      117.782     107.171     -63.131
  H      123.094     101.897     -60.428
  H      116.150     105.985     -61.523
  H      116.646      99.872     -63.230
  H      117.683     101.755     -61.979
  H      119.941     101.263     -59.351
  H      121.557     101.278     -61.765
  H      120.634     103.321     -62.543
  H      120.366     104.187     -59.621
  H      118.088      96.455     -62.972
  H      118.316     105.339     -60.531
  H      116.816      97.397     -63.699
  H      119.814     105.996     -61.167
  P      122.331     105.330     -62.559
  C      123.355     105.401     -64.915
  O      123.188     104.644     -63.728
  O      123.415     106.298     -61.886
  O      121.106     106.066     -62.978
  H      123.543     107.096     -62.430
  H      124.118     104.922     -65.535
  H      123.685     106.417     -64.678
  H      122.417     105.430     -65.472
  H      117.585     105.015     -66.555
  H      118.973     105.242     -65.518
  H      117.858     106.560     -65.787

 3  4  5  6  7  8  9  10  11  12  13  21  23  27  28  29  30  32 0
 6-311+G(2d,p)
 ****
 34  35 0
 6-311+G(2d,p)
 ****
 1  2  14  15  16  17  18  19  20  22  24  25  26 0
 3-21G
 ****
 31  33  36  37  38  39  40  41  42  43  44  45  46 0
 3-21G
 ****


