%nproc=1
%NoSave
%Mem=1900MB
#P OB98/GEN NMR

erre ene a

0 1
  C      260.462    -246.191    -896.660
  O      260.022    -245.074    -895.870
  P      260.431    -245.045    -894.320
  C      261.715    -242.807    -894.660
  O      261.746    -244.151    -894.170
  C      262.941    -242.031    -894.170
  O      262.976    -241.959    -892.710
  C      264.275    -242.623    -894.600
  O      264.631    -242.234    -895.900
  C      265.224    -242.003    -893.590
  O      265.546    -240.651    -894.000
  C      264.370    -241.993    -892.310
  N      267.407    -243.909    -888.730
  C      267.449    -242.682    -889.380
  N      268.455    -241.857    -889.030
  N      266.609    -242.317    -890.300
  C      265.644    -243.230    -890.550
  C      265.489    -244.493    -889.980
  C      266.451    -244.886    -888.970
  O      266.479    -245.972    -888.380
  N      264.410    -245.143    -890.490
  C      263.897    -244.294    -891.360
  N      264.619    -243.136    -891.450
  O      260.990    -246.536    -894.070
  O      259.306    -244.714    -893.400
  H      265.945    -240.217    -893.220
  H      260.858    -246.780    -893.130
  H      268.090    -244.154    -888.060
  H      262.991    -244.492    -891.950
  H      264.542    -241.080    -891.700
  H      266.169    -242.554    -893.520
  H      269.126    -242.045    -888.280
  H      264.259    -243.732    -894.470
  H      268.489    -240.942    -889.460
  H      262.847    -241.000    -894.560
  H      260.798    -242.307    -894.330
  H      261.668    -242.818    -895.750
  P      265.162    -243.362    -896.920
  C      264.383    -242.193    -899.110
  O      264.227    -243.279    -898.210
  O      264.714    -244.728    -896.200
  O      266.636    -243.336    -897.170
  H      265.360    -245.441    -896.390
  H      263.782    -242.392    -900.000
  H      265.447    -242.085    -899.400
  H      264.033    -241.269    -898.620
  H      260.117    -246.074    -897.666
  H      260.066    -247.096    -896.250
  H      261.531    -246.234    -896.652

 3  4  5  6  7  8  9  10  11  12  23  26  30  31 0
 6-311+G(2d,p)
 ****
 33  35  36  37  38 0
 6-311+G(2d,p)
 ****
 1  2  13  14  15  16  17  18  19  20  21  22  24  25 0
 3-21G
 ****
 27  28  29  32  34  39  40  41  42  43  44  45  46  47  48  49 0
 3-21G
 ****


