%nproc=1
%NoSave
%Mem=1900MB
#P OB98/GEN NMR

erre ene a

0 1
  C      263.709    -299.968     306.375
  O      263.747    -299.465     305.029
  P      265.119    -299.376     304.198
  C      264.878    -297.242     302.758
  O      264.820    -298.670     302.781
  C      263.686    -296.643     302.017
  O      262.519    -296.614     302.867
  C      263.891    -295.205     301.544
  O      264.682    -295.179     300.363
  C      262.452    -294.736     301.373
  O      261.918    -295.191     300.114
  C      261.746    -295.438     302.535
  N      259.858    -291.004     304.252
  C      259.823    -291.584     303.033
  N      260.360    -292.772     302.656
  C      260.955    -293.377     303.696
  C      261.076    -292.904     304.995
  C      260.492    -291.649     305.266
  N      260.538    -291.047     306.505
  N      261.780    -293.791     305.780
  C      262.069    -294.798     304.970
  N      261.586    -294.596     303.704
  O      265.858    -300.673     304.089
  O      265.998    -298.288     304.974
  H      262.568    -294.960     299.423
  H      266.949    -298.476     304.844
  H      259.304    -291.032     302.262
  H      262.607    -295.687     305.255
  H      260.749    -295.788     302.249
  H      262.359    -293.641     301.388
  H      264.376    -294.616     302.330
  H      263.452    -297.294     301.169
  H      265.809    -296.944     302.267
  H      260.134    -290.134     306.608
  H      261.054    -291.501     307.244
  H      264.901    -296.884     303.801
  P      265.883    -294.131     300.215
  C      265.261    -293.184     297.910
  O      266.179    -293.971     298.650
  O      267.073    -294.393     301.076
  O      265.203    -292.724     300.592
  H      265.873    -292.135     300.979
  H      264.375    -293.780     297.680
  H      265.740    -292.872     296.971
  H      264.970    -292.297     298.475
  H      262.703    -299.940     306.738
  H      264.331    -299.362     307.000
  H      264.065    -300.977     306.389

 3  4  5  6  7  8  9  10  11  12  22  25  29  30  31  32 0
 6-311+G(2d,p)
 ****
 33  36  37 0
 6-311+G(2d,p)
 ****
 1  2  13  14  15  16  17  18  19  20  21  23  24  26 0
 3-21G
 ****
 27  28  34  35  38  39  40  41  42  43  44  45  46  47  48 0
 3-21G
 ****


