%nproc=1
%NoSave
%Mem=1900MB
#P OB98/GEN NMR

erre ene a

0 1
  C     -138.882    -181.005     -61.673
  O     -138.681    -180.785     -60.294
  H     -137.908    -181.014     -62.170
  H     -139.482    -180.193     -62.090
  H     -139.379    -181.961     -61.857
  P     -139.858    -181.157     -59.275
  C     -138.891    -183.511     -58.851
  O     -140.018    -182.755     -59.274
  C     -139.170    -184.277     -57.557
  O     -140.199    -185.268     -57.776
  C     -137.945    -185.044     -57.060
  O     -137.030    -184.289     -56.287
  C     -138.586    -186.148     -56.223
  O     -138.849    -185.690     -54.886
  C     -139.897    -186.417     -56.966
  N     -140.975    -191.391     -57.424
  C     -141.150    -190.560     -56.334
  N     -141.617    -191.144     -55.209
  N     -140.872    -189.284     -56.350
  C     -140.324    -188.860     -57.513
  C     -140.090    -189.592     -58.656
  C     -140.450    -190.995     -58.647
  O     -140.309    -191.776     -59.583
  N     -139.522    -188.819     -59.641
  C     -139.345    -187.645     -59.070
  N     -139.841    -187.612     -57.787
  O     -141.184    -180.678     -60.041
  O     -139.759    -180.521     -57.922
  H     -138.000    -185.626     -54.411
  H     -141.882    -180.469     -59.396
  H     -141.231    -192.360     -57.365
  H     -138.892    -186.782     -59.546
  H     -140.734    -186.545     -56.268
  H     -137.932    -187.021     -56.135
  H     -141.732    -192.141     -55.115
  H     -137.420    -185.510     -57.900
  H     -141.507    -190.636     -54.328
  H     -139.547    -183.580     -56.799
  H     -138.077    -182.801     -58.695
  H     -138.576    -184.198     -59.642
  P     -135.480    -184.689     -56.263
  C     -135.170    -183.648     -58.631
  O     -134.994    -184.769     -57.788
  O     -135.516    -186.218     -55.793
  O     -134.628    -183.853     -55.370
  H     -135.361    -186.279     -54.831
  H     -134.793    -183.873     -59.607
  H     -134.639    -182.811     -58.227
  H     -136.211    -183.411     -58.697

 6  7  8  9  10  11  12  13  14  15  26  29  33  34 0
 6-311+G(2d,p)
 ****
 36  38  39  40  41 0
 6-311+G(2d,p)
 ****
 1  2  3  4  5  16  17  18  19  20  21  22  23  24  25 0
 3-21G
 ****
 27  28  30  31  32  35  37  42  43  44  45  46  47 0
 3-21G
 ****
 48  49 0
 3-21G
 ****


