%nproc=1
%NoSave
%Mem=1900MB
#P OB98/GEN NMR

erre ene a

0 1
  C     -370.164      -9.344     290.188
  O     -369.483      -8.145     290.560
  P     -370.256      -6.751     290.393
  C     -370.097      -5.918     292.853
  O     -369.722      -5.721     291.498
  C     -368.862      -5.923     293.766
  O     -367.998      -7.054     293.463
  C     -367.982      -4.692     293.620
  O     -368.486      -3.606     294.381
  C     -366.666      -5.200     294.217
  O     -366.735      -5.166     295.650
  C     -366.629      -6.646     293.726
  N     -362.373      -8.708     291.727
  C     -362.846      -8.648     292.997
  N     -363.985      -8.081     293.455
  C     -364.666      -7.512     292.431
  C     -364.307      -7.481     291.102
  C     -363.093      -8.111     290.752
  N     -362.634      -8.146     289.453
  N     -365.245      -6.789     290.358
  C     -366.173      -6.438     291.229
  N     -365.854      -6.847     292.506
  O     -371.732      -7.095     290.910
  O     -370.271      -6.229     288.989
  H     -366.550      -4.239     295.920
  H     -372.395      -6.588     290.385
  H     -362.225      -9.151     293.734
  H     -367.073      -5.895     291.001
  H     -366.220      -7.340     294.483
  H     -365.809      -4.595     293.919
  H     -367.831      -4.435     292.561
  H     -369.210      -6.019     294.802
  H     -370.656      -6.865     292.963
  H     -361.764      -8.639     289.276
  H     -363.174      -7.725     288.711
  H     -370.789      -5.116     293.148
  P     -368.642      -2.202     293.633
  C     -371.208      -1.948     294.048
  O     -369.895      -1.478     294.336
  O     -369.200      -2.627     292.194
  O     -367.391      -1.396     293.543
  H     -368.893      -1.978     291.518
  H     -371.887      -1.563     294.813
  H     -371.236      -3.040     294.070
  H     -371.538      -1.582     293.068
  H     -369.524     -10.185     290.356
  H     -370.428      -9.298     289.152
  H     -371.051      -9.448     290.778

 3  4  5  6  7  8  9  10  11  12  22  25  29  30  31  32 0
 6-311+G(2d,p)
 ****
 33  36  37 0
 6-311+G(2d,p)
 ****
 1  2  13  14  15  16  17  18  19  20  21  23  24  26 0
 3-21G
 ****
 27  28  34  35  38  39  40  41  42  43  44  45  46  47  48 0
 3-21G
 ****


