%nproc=1
%NoSave
%Mem=1900MB
#P OB98/GEN NMR

erre ene a

0 1
  C      202.171    -180.172    -100.024
  O      202.620    -178.925    -100.511
  H      201.105    -180.121     -99.780
  H      202.314    -180.927    -100.802
  H      202.742    -180.464     -99.138
  P      202.505    -177.673     -99.513
  C      204.308    -176.319    -100.807
  O      202.957    -176.392    -100.368
  C      204.421    -175.315    -101.948
  O      203.995    -175.922    -103.188
  C      203.557    -174.070    -101.778
  O      204.159    -173.114    -100.924
  C      203.501    -173.573    -103.212
  O      204.738    -172.918    -103.547
  C      203.364    -174.885    -103.993
  N      199.976    -176.104    -107.627
  C      201.277    -175.754    -107.689
  N      202.109    -175.439    -106.676
  C      201.471    -175.513    -105.498
  C      200.145    -175.850    -105.278
  C      199.379    -176.162    -106.415
  N      198.047    -176.507    -106.357
  N      199.841    -175.781    -103.932
  C      200.973    -175.444    -103.351
  N      201.985    -175.260    -104.254
  O      203.728    -177.884     -98.502
  O      201.199    -177.525     -98.807
  H      205.455    -173.539    -103.313
  H      203.572    -177.384     -97.679
  H      201.707    -175.720    -108.687
  H      201.109    -175.321    -102.284
  H      203.882    -174.856    -104.957
  H      202.700    -172.852    -103.383
  H      202.544    -174.325    -101.445
  H      205.479    -175.044    -102.057
  H      204.624    -177.304    -101.157
  H      197.550    -176.530    -107.234
  H      197.563    -176.405    -105.479
  H      204.941    -176.017     -99.967
  P      203.260    -172.516     -99.736
  C      205.245    -171.554     -98.356
  O      204.087    -171.278     -99.140
  O      203.377    -173.630     -98.596
  O      201.841    -172.230    -100.109
  H      202.595    -173.615     -98.013
  H      205.684    -170.634     -98.033
  H      205.953    -172.100     -98.945
  H      204.967    -172.136     -97.502

 6  7  8  9  10  11  12  13  14  15  25  28  32  33  34  35 0
 6-311+G(2d,p)
 ****
 36  39  40 0
 6-311+G(2d,p)
 ****
 1  2  3  4  5  16  17  18  19  20  21  22  23  24 0
 3-21G
 ****
 26  27  29  30  31  37  38  41  42  43  44  45  46  47 0
 3-21G
 ****
 48 0
 3-21G
 ****


