%nproc=1
%NoSave
%Mem=1900MB
#P OB98/GEN NMR

erre ene a

0 1
  C      378.386     -44.964     149.719
  O      379.295     -43.909     149.985
  P      379.325     -42.547     149.163
  C      380.122     -41.773     146.807
  O      380.147     -42.801     147.796
  C      381.450     -41.671     146.031
  O      381.739     -42.926     145.384
  C      381.314     -40.630     144.907
  O      381.491     -39.254     145.188
  C      382.176     -41.172     143.768
  O      383.470     -40.573     143.719
  C      382.286     -42.665     144.085
  N      381.519     -43.697     139.178
  C      382.500     -42.923     139.766
  N      383.253     -42.190     138.912
  N      382.711     -42.872     141.048
  C      381.812     -43.580     141.773
  C      380.801     -44.397     141.313
  C      380.618     -44.486     139.881
  O      379.696     -45.089     139.333
  N      380.052     -44.910     142.335
  C      380.574     -44.375     143.418
  N      381.616     -43.526     143.126
  O      379.591     -41.300     149.931
  O      377.807     -42.467     148.622
  H      383.357     -39.604     143.661
  H      377.547     -41.521     148.592
  H      381.357     -43.641     138.179
  H      380.213     -44.538     144.430
  H      383.333     -42.976     144.120
  H      381.704     -40.964     142.797
  H      383.029     -42.097     137.929
  H      380.285     -40.702     144.538
  H      383.871     -41.485     139.308
  H      382.287     -41.482     146.710
  H      379.892     -40.835     147.311
  H      379.311     -41.971     146.098
  P      381.143     -38.036     144.212
  C      382.243     -36.752     142.283
  O      382.427     -37.723     143.308
  O      381.068     -36.761     145.181
  O      379.858     -38.194     143.457
  H      380.531     -36.062     144.770
  H      383.045     -36.846     141.559
  H      382.256     -35.754     142.719
  H      381.279     -36.913     141.767
  H      378.563     -45.768     150.403
  H      378.526     -45.311     148.716
  H      377.383     -44.609     149.837

 3  4  5  6  7  8  9  10  11  12  23  26  30  31 0
 6-311+G(2d,p)
 ****
 33  35  36  37  38 0
 6-311+G(2d,p)
 ****
 1  2  13  14  15  16  17  18  19  20  21  22  24  25 0
 3-21G
 ****
 27  28  29  32  34  39  40  41  42  43  44  45  46  47  48  49 0
 3-21G
 ****


