%nproc=1
%NoSave
%Mem=1900MB
#P OB98/GEN NMR

erre ene a

0 1
  C       -7.281    -895.050     254.895
  O       -6.871    -894.160     253.878
  H       -6.794    -894.790     255.845
  H       -8.365    -894.960     255.021
  H       -7.044    -896.090     254.628
  P       -5.309    -894.150     253.522
  C       -3.273    -894.230     255.137
  O       -4.556    -893.690     254.868
  C       -2.826    -893.830     256.539
  O       -3.882    -894.060     257.492
  C       -1.618    -894.590     257.063
  O       -0.390    -894.070     256.558
  C       -1.743    -894.340     258.550
  O       -1.286    -893.010     258.861
  C       -3.268    -894.440     258.746
  N       -5.418    -897.290     262.419
  C       -5.088    -895.970     262.387
  N       -4.520    -895.300     261.368
  C       -4.272    -896.100     260.318
  C       -4.553    -897.470     260.235
  C       -5.152    -898.050     261.347
  N       -5.474    -899.400     261.410
  N       -4.123    -897.960     259.018
  C       -3.654    -896.920     258.366
  N       -3.710    -895.780     259.121
  O       -5.153    -892.870     252.570
  O       -4.768    -895.390     252.896
  H       -1.269    -892.930     259.832
  H       -4.332    -892.950     252.040
  H       -5.312    -895.400     263.266
  H       -3.242    -896.950     257.362
  H       -3.633    -893.750     259.524
  H       -1.159    -895.030     259.156
  H       -1.705    -895.660     256.871
  H       -2.622    -892.740     256.535
  H       -2.561    -893.840     254.403
  H       -5.728    -899.760     262.311
  H       -5.148    -900.000     260.672
  H       -3.317    -895.320     255.059
  P        0.858    -895.080     256.454
  C        2.258    -896.180     258.355
  O        1.581    -895.030     257.886
  O        1.871    -894.310     255.501
  O        0.513    -896.450     255.959
  H        2.453    -894.940     255.029
  H        2.680    -895.978     259.317
  H        3.039    -896.438     257.670
  H        1.567    -896.994     258.432

 6  7  8  9  10  11  12  13  14  15  25  28  32  33  34  35 0
 6-311+G(2d,p)
 ****
 36  39  40 0
 6-311+G(2d,p)
 ****
 1  2  3  4  5  16  17  18  19  20  21  22  23  24 0
 3-21G
 ****
 26  27  29  30  31  37  38  41  42  43  44  45  46  47 0
 3-21G
 ****
 48 0
 3-21G
 ****


