%nproc=1
%NoSave
%Mem=1900MB
#P OB98/GEN NMR

erre ene a

0 1
  C      151.059    -370.907    -102.297
  O      149.861    -371.019    -103.041
  P      148.478    -370.514    -102.415
  C      147.488    -369.908    -104.745
  O      147.362    -370.662    -103.557
  C      146.112    -369.468    -105.267
  O      145.406    -370.651    -105.711
  C      145.209    -368.814    -104.224
  O      144.177    -368.095    -104.901
  C      144.613    -370.022    -103.527
  O      143.414    -369.704    -102.828
  C      144.457    -371.035    -104.690
  N      144.710    -372.418    -104.244
  C      143.878    -372.922    -103.254
  O      142.915    -372.302    -102.807
  N      144.238    -374.132    -102.728
  C      145.355    -374.841    -103.068
  O      145.826    -375.747    -102.391
  C      146.058    -374.376    -104.276
  C      145.725    -373.187    -104.788
  O      148.697    -368.932    -102.296
  O      148.124    -371.123    -101.102
  H      143.124    -370.527    -102.372
  H      148.984    -368.700    -101.394
  H      143.718    -374.431    -101.914
  H      146.857    -374.986    -104.669
  H      146.259    -372.795    -105.646
  H      143.446    -371.000    -105.119
  H      145.335    -370.402    -102.794
  H      145.732    -368.158    -103.523
  H      146.245    -368.808    -106.132
  H      148.011    -370.502    -105.497
  H      148.103    -369.020    -104.565
  P      143.899    -366.582    -104.451
  C      143.549    -365.746    -106.853
  O      142.962    -365.942    -105.582
  O      145.099    -365.778    -104.075
  O      142.890    -366.755    -103.212
  H      142.882    -365.941    -102.679
  H      142.765    -365.813    -107.611
  H      144.313    -366.497    -107.062
  H      143.997    -364.748    -106.893
  H      151.874    -371.293    -102.873
  H      150.968    -371.465    -101.389
  H      151.241    -369.878    -102.067

 3  4  5  6  7  8  9  10  11  12  13  23  28  29  30  31  32 0
 6-311+G(2d,p)
 ****
 33  34 0
 6-311+G(2d,p)
 ****
 1  2  14  15  16  17  18  19  20  21  22  24  25  26  27 0
 3-21G
 ****
 35  36  37  38  39  40  41  42  43  44  45 0
 3-21G
 ****


