%nproc=1
%NoSave
%Mem=1900MB
#P OB98/GEN NMR

erre ene a

0 1
  C      269.443     127.517    -203.144
  O      269.394     128.917    -202.974
  H      269.410     127.045    -202.159
  H      270.378     127.236    -203.637
  H      268.595     127.160    -203.731
  P      269.105     129.840    -204.249
  C      271.544     129.757    -205.088
  O      270.186     129.452    -205.368
  C      272.478     129.036    -206.069
  O      272.385     129.680    -207.365
  C      273.941     129.132    -205.626
  O      274.715     128.026    -206.083
  C      274.420     130.394    -206.325
  O      275.836     130.435    -206.498
  C      273.639     130.327    -207.636
  N      273.555     133.115    -211.902
  C      274.051     131.842    -211.701
  N      274.592     131.231    -212.781
  N      274.038     131.234    -210.543
  C      273.533     131.991    -209.541
  C      273.033     133.271    -209.611
  C      273.021     133.920    -210.905
  O      272.616     135.056    -211.133
  N      272.619     133.716    -208.380
  C      272.869     132.710    -207.567
  N      273.403     131.630    -208.229
  O      269.597     131.291    -203.783
  O      267.682     129.866    -204.719
  H      276.046     131.242    -207.004
  H      269.166     131.983    -204.317
  H      273.563     133.526    -212.818
  H      272.672     132.705    -206.502
  H      274.177     129.721    -208.376
  H      274.146     131.252    -205.710
  H      274.798     131.737    -213.629
  H      274.049     129.219    -204.548
  H      275.227     130.451    -212.588
  H      272.151     127.999    -206.205
  H      271.740     129.432    -204.063
  H      271.707     130.835    -205.122
  P      275.012     126.826    -205.064
  C      277.121     127.649    -203.694
  O      275.737     127.390    -203.759
  O      276.149     125.979    -205.798
  O      273.816     125.989    -204.731
  H      275.817     125.089    -206.025
  H      277.369     128.019    -202.721
  H      277.382     128.379    -204.431
  H      277.662     126.745    -203.880

 6  7  8  9  10  11  12  13  14  15  26  29  33  34 0
 6-311+G(2d,p)
 ****
 36  38  39  40  41 0
 6-311+G(2d,p)
 ****
 1  2  3  4  5  16  17  18  19  20  21  22  23  24  25 0
 3-21G
 ****
 27  28  30  31  32  35  37  42  43  44  45  46  47 0
 3-21G
 ****
 48  49 0
 3-21G
 ****


