%nproc=1
%NoSave
%Mem=1900MB
#P OB98/GEN NMR

erre ene a

0 1
  C     -475.574    1261.940       5.296
  O     -475.190    1262.990       4.431
  H     -475.267    1260.991       4.850
  H     -476.658    1261.932       5.415
  H     -475.088    1262.040       6.271
  P     -475.390    1264.503       4.910
  C     -472.941    1264.677       5.698
  O     -474.306    1264.790       6.062
  C     -472.029    1265.108       6.857
  O     -472.040    1266.551       6.935
  C     -472.476    1264.554       8.220
  O     -471.311    1264.236       8.986
  C     -473.201    1265.724       8.851
  O     -473.185    1265.667      10.272
  C     -472.447    1266.920       8.274
  N     -475.853    1269.609      10.856
  C     -475.142    1268.481      11.227
  N     -475.392    1267.984      12.456
  N     -474.269    1267.891      10.449
  C     -474.111    1268.511       9.257
  C     -474.749    1269.629       8.777
  C     -475.728    1270.256       9.640
  O     -476.398    1271.252       9.364
  N     -474.326    1269.937       7.512
  C     -473.429    1269.005       7.228
  N     -473.272    1268.118       8.244
  O     -476.794    1264.869       5.275
  O     -474.859    1265.380       3.684
  H     -472.248    1265.683      10.552
  H     -475.599    1265.775       3.192
  H     -476.520    1270.017      11.489
  H     -472.879    1268.943       6.300
  H     -471.546    1267.164       8.852
  H     -474.247    1265.726       8.521
  H     -476.033    1268.404      13.116
  H     -473.104    1263.669       8.120
  H     -474.866    1267.176      12.763
  H     -471.006    1264.803       6.626
  H     -472.757    1265.321       4.831
  H     -472.725    1263.638       5.415
  P     -470.686    1262.760       8.879
  C     -468.322    1263.101       7.934
  O     -469.662    1262.720       7.642
  O     -471.680    1261.647       8.907
  O     -469.715    1262.692      10.149
  H     -469.715    1261.779      10.505
  H     -467.731    1263.038       7.044
  H     -467.919    1262.445       8.677
  H     -468.309    1264.106       8.300

 6  7  8  9  10  11  12  13  14  15  26  29  33  34 0
 6-311+G(2d,p)
 ****
 36  38  39  40  41 0
 6-311+G(2d,p)
 ****
 1  2  3  4  5  16  17  18  19  20  21  22  23  24  25 0
 3-21G
 ****
 27  28  30  31  32  35  37  42  43  44  45  46  47 0
 3-21G
 ****
 48  49 0
 3-21G
 ****


