%nproc=1
%NoSave
%Mem=1900MB
#P OB98/GEN NMR

erre ene a

0 1
  C      232.728     547.277      -5.661
  O      233.519     546.453      -6.497
  H      233.161     547.264      -4.656
  H      231.708     546.896      -5.605
  H      232.721     548.307      -6.027
  P      233.087     546.303      -8.033
  C      233.960     548.605      -8.826
  O      234.130     547.194      -8.875
  C      234.924     549.280      -9.787
  O      236.286     549.026      -9.403
  C      234.788     548.809     -11.240
  O      233.703     549.462     -11.872
  C      236.146     549.217     -11.788
  O      236.167     550.634     -12.035
  C      237.073     548.863     -10.617
  N      240.022     545.589     -13.134
  C      239.663     546.883     -13.444
  N      240.132     547.364     -14.623
  N      238.909     547.638     -12.691
  C      238.463     546.999     -11.580
  C      238.727     545.719     -11.172
  C      239.616     544.908     -11.991
  O      239.964     543.766     -11.742
  N      238.035     545.401     -10.028
  C      237.390     546.505      -9.722
  N      237.604     547.504     -10.646
  O      231.652     546.589      -8.350
  O      233.504     544.804      -8.408
  H      235.414     550.828     -12.622
  H      232.757     544.186      -8.270
  H      240.590     545.052     -13.765
  H      236.757     546.639      -8.854
  H      237.933     549.546     -10.546
  H      236.393     548.724     -12.726
  H      240.472     546.753     -15.350
  H      234.699     547.713     -11.303
  H      239.851     548.301     -14.893
  H      234.770     550.368      -9.716
  H      234.156     548.926      -7.793
  H      232.929     548.873      -9.084
  P      232.742     548.678     -12.895
  C      231.212     548.434     -10.822
  O      231.289     548.727     -12.218
  O      233.209     547.311     -13.268
  O      232.584     549.665     -14.138
  H      233.284     549.555     -14.827
  H      230.194     548.501     -10.499
  H      231.806     549.137     -10.277
  H      231.578     547.444     -10.645

 6  7  8  9  10  11  12  13  14  15  26  29  33  34 0
 6-311+G(2d,p)
 ****
 36  38  39  40  41 0
 6-311+G(2d,p)
 ****
 1  2  3  4  5  16  17  18  19  20  21  22  23  24  25 0
 3-21G
 ****
 27  28  30  31  32  35  37  42  43  44  45  46  47 0
 3-21G
 ****
 48  49 0
 3-21G
 ****


