%nproc=1
%NoSave
%Mem=1900MB
#P OB98/GEN NMR

erre ene a

0 1
  C     -262.302       4.358     113.209
  O     -263.133       5.345     112.632
  H     -261.640       4.836     113.939
  H     -261.686       3.873     112.444
  H     -262.909       3.609     113.727
  P     -264.088       4.936     111.412
  C     -265.978       3.963     112.873
  O     -265.594       4.996     111.972
  C     -267.441       4.125     113.296
  O     -267.531       5.246     114.217
  C     -268.394       4.398     112.122
  O     -269.628       3.719     112.381
  C     -268.586       5.899     112.189
  O     -269.796       6.297     111.574
  C     -268.506       6.173     113.694
  N     -268.134       7.566     113.963
  C     -269.156       8.519     113.848
  O     -270.305       8.167     113.556
  N     -268.849       9.845     114.004
  C     -267.618      10.202     114.199
  N     -267.375      11.538     114.307
  C     -266.499       9.236     114.294
  C     -266.829       7.949     114.170
  O     -263.740       3.670     110.698
  O     -264.017       6.203     110.432
  H     -269.969       7.244     111.776
  H     -263.295       6.083     109.786
  H     -265.488       9.588     114.451
  H     -266.071       7.170     114.219
  H     -269.464       5.964     114.182
  H     -267.759       6.400     111.666
  H     -267.988       4.079     111.157
  H     -267.747       3.230     113.855
  H     -268.167      12.163     114.206
  H     -265.333       4.028     113.754
  H     -266.451      11.937     114.414
  H     -265.836       2.984     112.397
  P     -270.246       2.696     111.304
  C     -268.780       0.618     111.630
  O     -270.066       1.192     111.853
  O     -269.774       2.906     109.903
  O     -271.829       2.935     111.413
  H     -272.242       2.757     110.542
  H     -268.759      -0.375     112.027
  H     -268.035       1.212     112.116
  H     -268.581       0.586     110.579

 6  7  8  9  10  11  12  13  14  15  16  26  30  31  32  33  35 0
 6-311+G(2d,p)
 ****
 37  38 0
 6-311+G(2d,p)
 ****
 1  2  3  4  5  17  18  19  20  21  22  23  24  25 0
 3-21G
 ****
 27  28  29  34  36  39  40  41  42  43  44  45  46 0
 3-21G
 ****


