%nproc=1
%NoSave
%Mem=1900MB
#P OB98/GEN NMR

erre ene a

0 1
  C       80.611      64.985     154.129
  O       80.710      64.235     152.935
  H       79.700      64.690     154.655
  H       80.552      66.052     153.901
  H       81.469      64.793     154.782
  P       82.059      64.326     152.071
  C       82.891      61.945     152.617
  O       83.119      63.340     152.764
  C       84.196      61.238     152.257
  O       85.252      61.648     153.152
  C       84.130      59.718     152.362
  O       83.428      59.161     151.264
  C       85.613      59.372     152.416
  O       86.190      59.386     151.104
  C       86.167      60.534     153.278
  N       86.359      60.174     154.682
  C       87.422      59.320     154.962
  O       88.154      58.848     154.089
  N       87.608      59.007     156.286
  C       86.800      59.394     157.318
  O       86.982      59.042     158.482
  C       85.671      60.264     156.960
  C       85.503      60.607     155.679
  O       82.567      65.704     151.802
  O       81.689      63.556     150.715
  H       85.830      58.610     150.631
  H       81.484      64.205     150.015
  H       88.367      58.383     156.507
  H       85.005      60.584     157.755
  H       84.675      61.247     155.397
  H       87.131      60.875     152.878
  H       85.800      58.382     152.836
  H       83.664      59.424     153.313
  H       84.479      61.543     151.237
  H       82.156      61.790     151.815
  H       82.484      61.551     153.555
  P       82.600      57.801     151.427
  C       80.433      58.983     152.129
  O       81.447      58.065     152.519
  O       83.426      56.581     151.673
  O       81.780      57.681     150.057
  H       82.178      56.988     149.492
  H       79.721      59.086     152.921
  H       79.940      58.619     151.252
  H       80.875      59.935     151.920

 6  7  8  9  10  11  12  13  14  15  16  26  31  32  33  34  35 0
 6-311+G(2d,p)
 ****
 36  37 0
 6-311+G(2d,p)
 ****
 1  2  3  4  5  17  18  19  20  21  22  23  24  25 0
 3-21G
 ****
 27  28  29  30  38  39  40  41  42  43  44  45 0
 3-21G
 ****


