%nproc=1
%NoSave
%Mem=1900MB
#P OB98/GEN NMR

erre ene a

0 1
  C     -390.956    -454.454    -202.744
  O     -391.230    -453.130    -203.162
  P     -392.495    -452.798    -204.083
  C     -392.771    -450.523    -202.943
  O     -392.639    -451.204    -204.177
  C     -393.582    -449.230    -203.099
  O     -392.762    -448.212    -203.734
  C     -394.862    -449.399    -203.944
  O     -395.873    -448.585    -203.344
  C     -394.449    -448.833    -205.292
  O     -395.568    -448.421    -206.072
  C     -393.502    -447.710    -204.856
  N     -392.619    -447.279    -205.930
  C     -393.107    -446.310    -206.806
  O     -394.282    -445.945    -206.735
  N     -392.250    -445.782    -207.753
  C     -391.085    -446.319    -207.912
  N     -390.239    -445.724    -208.810
  C     -390.631    -447.511    -207.172
  C     -391.418    -447.911    -206.178
  O     -393.753    -453.513    -203.713
  O     -392.022    -453.207    -205.565
  H     -392.676    -453.823    -205.953
  H     -396.079    -447.761    -205.559
  H     -389.701    -448.003    -207.440
  H     -391.160    -448.760    -205.557
  H     -394.077    -446.838    -204.509
  H     -393.906    -449.594    -205.856
  H     -395.209    -450.434    -203.994
  H     -393.844    -448.870    -202.100
  H     -390.573    -444.885    -209.274
  H     -391.768    -450.262    -202.589
  H     -389.231    -445.870    -208.777
  H     -393.227    -451.180    -202.198
  P     -397.394    -449.094    -203.405
  C     -398.111    -447.510    -201.473
  O     -398.329    -447.934    -202.812
  O     -397.418    -450.178    -202.217
  O     -397.838    -449.732    -204.683
  H     -398.128    -450.828    -202.398
  H     -398.880    -446.766    -201.222
  H     -397.127    -447.053    -201.375
  H     -398.203    -448.355    -200.783
  H     -390.073    -454.462    -202.140
  H     -390.807    -455.075    -203.602
  H     -391.781    -454.826    -202.174

 3  4  5  6  7  8  9  10  11  12  13  24  27  28  29  30  32 0
 6-311+G(2d,p)
 ****
 34  35 0
 6-311+G(2d,p)
 ****
 1  2  14  15  16  17  18  19  20  21  22  23  25  26 0
 3-21G
 ****
 31  33  36  37  38  39  40  41  42  43  44  45  46 0
 3-21G
 ****


