%nproc=1
%NoSave
%Mem=1900MB
#P OB98/GEN NMR

erre ene a

0 1
  C       99.047     -42.347    -448.222
  O       99.529     -41.322    -449.101
  P       98.860     -39.863    -448.999
  C      100.261     -38.527    -447.265
  O      100.000     -38.799    -448.634
  C      101.020     -37.205    -447.114
  O      100.930     -36.681    -445.776
  C      102.513     -37.325    -447.396
  O      102.789     -37.283    -448.794
  C      103.045     -36.073    -446.719
  O      102.834     -34.926    -447.568
  C      102.157     -35.977    -445.475
  N      105.434     -35.228    -441.608
  C      105.090     -34.451    -442.659
  N      104.223     -34.725    -443.654
  C      103.677     -35.940    -443.489
  C      103.938     -36.847    -442.469
  C      104.862     -36.446    -441.489
  N      105.211     -37.240    -440.421
  N      103.195     -38.001    -442.633
  C      102.490     -37.790    -443.729
  N      102.751     -36.564    -444.284
  O       97.997     -39.960    -447.655
  O       98.003     -39.510    -450.169
  H      101.876     -34.865    -447.737
  H       97.185     -39.431    -447.742
  H      105.569     -33.480    -442.705
  H      101.781     -38.486    -444.150
  H      101.890     -34.939    -445.221
  H      104.122     -36.123    -446.519
  H      102.934     -38.220    -446.920
  H      100.577     -36.475    -447.807
  H      100.836     -39.344    -446.818
  H      105.861     -36.877    -439.748
  H      104.768     -38.146    -440.317
  H       99.308     -38.489    -446.719
  P      103.947     -38.249    -449.342
  C      102.643     -40.477    -449.632
  O      103.209     -39.338    -450.256
  O      104.387     -39.064    -448.034
  O      105.095     -37.530    -449.969
  H      105.331     -39.306    -448.091
  H      101.939     -40.937    -450.330
  H      102.101     -40.199    -448.721
  H      103.430     -41.197    -449.396
  H       99.583     -43.255    -448.405
  H       98.004     -42.507    -448.399
  H       99.194     -42.044    -447.206

 3  4  5  6  7  8  9  10  11  12  22  25  29  30  31  32 0
 6-311+G(2d,p)
 ****
 33  36  37 0
 6-311+G(2d,p)
 ****
 1  2  13  14  15  16  17  18  19  20  21  23  24  26 0
 3-21G
 ****
 27  28  34  35  38  39  40  41  42  43  44  45  46  47  48 0
 3-21G
 ****


