%nproc=1
%NoSave
%Mem=1900MB
#P OB98/GEN NMR

erre ene a

0 1
  C       86.151    -154.737     -90.665
  O       87.472    -155.224     -90.561
  H       85.511    -155.324     -90.003
  H       85.784    -154.843     -91.689
  H       86.105    -153.689     -90.358
  P       88.609    -154.574     -91.483
  C       90.516    -154.439     -89.749
  O       90.018    -155.089     -90.914
  C       89.954    -155.109     -88.489
  O       90.256    -156.524     -88.570
  C       90.577    -154.554     -87.200
  O       89.603    -154.128     -86.251
  C       91.551    -155.650     -86.785
  O       91.829    -155.691     -85.401
  C       90.906    -156.921     -87.348
  N       91.855    -158.004     -87.598
  C       91.991    -158.975     -86.610
  O       91.367    -159.000     -85.553
  N       92.898    -159.969     -86.879
  C       93.669    -160.074     -87.998
  O       94.461    -160.990     -88.183
  C       93.501    -159.002     -88.991
  C       92.617    -158.032     -88.750
  O       88.516    -153.098     -91.676
  O       88.476    -155.357     -92.873
  H       90.967    -155.724     -84.934
  H       88.050    -154.778     -93.534
  H       92.994    -160.687     -86.179
  H       94.107    -159.048     -89.887
  H       92.467    -157.226     -89.463
  H       90.145    -157.301     -86.665
  H       92.504    -155.478     -87.299
  H       91.144    -153.637     -87.406
  H       88.864    -155.004     -88.490
  H       90.207    -153.390     -89.791
  H       91.610    -154.489     -89.739
  P       88.880    -152.707     -86.254
  C       86.437    -153.455     -85.630
  O       87.628    -152.771     -85.262
  O       88.646    -152.096     -87.594
  O       89.911    -151.753     -85.461
  H       89.815    -150.861     -85.850
  H       85.724    -153.382     -84.835
  H       86.660    -154.485     -85.816
  H       86.031    -153.013     -86.515

 6  7  8  9  10  11  12  13  14  15  16  26  31  32  33  34  35 0
 6-311+G(2d,p)
 ****
 36  37 0
 6-311+G(2d,p)
 ****
 1  2  3  4  5  17  18  19  20  21  22  23  24  25 0
 3-21G
 ****
 27  28  29  30  38  39  40  41  42  43  44  45 0
 3-21G
 ****


