%nproc=1
%NoSave
%Mem=1900MB
#P OB98/GEN NMR

erre ene a

0 1
  C     1422.341     143.018      27.287
  O     1422.590     141.661      27.609
  P     1421.353     140.777      28.095
  C     1422.591     138.509      27.739
  O     1421.954     139.384      28.639
  C     1422.663     137.104      28.338
  O     1421.417     136.780      28.983
  C     1422.911     136.004      27.309
  O     1424.266     135.930      26.926
  C     1422.427     134.761      28.068
  O     1423.456     134.259      28.938
  C     1421.243     135.333      28.886
  N     1419.942     134.980      28.304
  C     1419.405     133.773      28.754
  O     1419.976     133.024      29.554
  N     1418.191     133.440      28.209
  C     1417.503     134.150      27.253
  O     1416.452     133.752      26.772
  C     1418.150     135.407      26.816
  C     1419.319     135.740      27.357
  O     1420.604     140.350      26.726
  O     1420.418     141.467      29.042
  H     1424.224     134.030      28.353
  H     1419.649     140.344      26.875
  H     1417.754     132.585      28.537
  H     1417.632     135.980      26.060
  H     1419.826     136.659      27.033
  H     1421.287     134.955      29.916
  H     1422.153     133.953      27.393
  H     1422.263     136.168      26.440
  H     1423.447     137.090      29.107
  H     1423.595     138.874      27.530
  H     1422.036     138.490      26.786
  P     1424.591     135.458      25.437
  C     1427.004     136.214      26.139
  O     1426.187     135.362      25.356
  O     1424.217     136.804      24.616
  O     1423.819     134.245      25.017
  H     1424.407     137.597      25.128
  H     1426.548     136.416      27.107
  H     1427.152     137.153      25.598
  H     1427.968     135.734      26.291
  H     1423.253     143.485      26.979
  H     1421.954     143.523      28.147
  H     1421.627     143.071      26.491

 3  4  5  6  7  8  9  10  11  12  13  23  28  29  30  31  32 0
 6-311+G(2d,p)
 ****
 33  34 0
 6-311+G(2d,p)
 ****
 1  2  14  15  16  17  18  19  20  21  22  24  25  26 0
 3-21G
 ****
 27  35  36  37  38  39  40  41  42  43  44  45 0
 3-21G
 ****


