%nproc=1
%NoSave
%Mem=1900MB
#P OB98/GEN NMR

erre ene a

0 1
  C     -776.646     829.155       4.091
  O     -775.369     828.573       4.211
  H     -776.698     830.084       4.666
  H     -776.834     829.382       3.040
  H     -777.419     828.455       4.439
  P     -774.863     828.255       5.708
  C     -774.653     830.798       6.184
  O     -775.216     829.556       6.588
  C     -774.245     831.611       7.399
  O     -775.330     831.668       8.350
  C     -773.057     831.047       8.182
  O     -771.819     831.350       7.552
  C     -773.219     831.789       9.505
  O     -772.672     833.113       9.388
  C     -774.740     831.857       9.662
  N     -776.286     830.861      14.464
  C     -775.803     831.984      13.888
  N     -775.401     832.177      12.622
  C     -775.554     831.046      11.891
  C     -776.037     829.826      12.350
  C     -776.409     829.749      13.698
  N     -776.890     828.592      14.284
  N     -776.070     828.906      11.316
  C     -775.605     829.559      10.267
  N     -775.285     830.851      10.568
  O     -773.268     828.312       5.589
  O     -775.325     826.952       6.276
  H     -771.724     833.005       9.174
  H     -772.878     827.640       6.184
  H     -775.728     832.860      14.548
  H     -775.509     829.129       9.275
  H     -775.066     832.837      10.023
  H     -772.696     831.297      10.331
  H     -773.170     829.972       8.350
  H     -774.040     832.646       7.068
  H     -775.396     831.361       5.603
  H     -777.320     828.656      15.183
  H     -776.988     827.770      13.693
  H     -773.786     830.605       5.552
  P     -770.652     830.268       7.661
  C     -769.399     831.995       9.127
  O     -769.813     830.646       8.975
  O     -769.663     830.675       6.463
  O     -771.097     828.843       7.555
  H     -769.149     829.889       6.176
  H     -768.854     832.100      10.042
  H     -770.259     832.632       9.150
  H     -768.773     832.271       8.304

 6  7  8  9  10  11  12  13  14  15  25  28  32  33  34  35 0
 6-311+G(2d,p)
 ****
 36  39  40 0
 6-311+G(2d,p)
 ****
 1  2  3  4  5  16  17  18  19  20  21  22  23  24 0
 3-21G
 ****
 26  27  29  30  31  37  38  41  42  43  44  45  46  47  48 0
 3-21G
 ****


