%nproc=1
%NoSave
%Mem=1900MB
#P OB98/GEN NMR

erre ene a

0 1
  C      235.062     656.149     403.859
  O      233.671     655.886     403.618
  P      232.505     656.835     404.171
  C      231.133     654.666     404.422
  O      231.114     656.052     404.077
  C      229.719     654.084     404.522
  O      229.077     654.487     405.742
  C      228.776     654.529     403.399
  O      229.027     653.787     402.220
  C      227.417     654.260     404.038
  O      227.064     652.873     403.937
  C      227.680     654.636     405.507
  N      223.646     657.632     406.580
  C      223.752     656.303     406.329
  N      224.860     655.580     406.048
  C      225.946     656.363     406.054
  C      226.005     657.737     406.276
  C      224.784     658.378     406.555
  N      224.683     659.734     406.787
  N      227.306     658.204     406.184
  C      228.021     657.129     405.924
  N      227.254     655.992     405.822
  O      232.490     658.201     403.570
  O      232.773     656.919     405.758
  H      227.071     652.633     402.988
  H      232.440     657.764     406.101
  H      222.823     655.748     406.371
  H      229.095     657.124     405.779
  H      227.153     653.963     406.198
  H      226.606     654.834     403.570
  H      228.886     655.594     403.217
  H      229.803     652.985     404.532
  H      231.647     654.559     405.383
  H      223.767     660.120     406.933
  H      225.517     660.307     406.714
  H      231.705     654.127     403.657
  P      229.264     654.561     400.838
  C      227.807     652.783     399.655
  O      229.055     653.484     399.657
  O      230.517     655.353     400.742
  O      227.966     655.488     400.693
  H      228.206     656.302     400.190
  H      227.856     651.975     400.388
  H      227.657     652.357     398.656
  H      226.984     653.459     399.892
  H      235.654     655.387     403.397
  H      235.247     656.155     404.913
  H      235.322     657.101     403.446

 3  4  5  6  7  8  9  10  11  12  22  25  29  30  31  32 0
 6-311+G(2d,p)
 ****
 33  36  37 0
 6-311+G(2d,p)
 ****
 1  2  13  14  15  16  17  18  19  20  21  23  24  26 0
 3-21G
 ****
 27  28  34  35  38  39  40  41  42  43  44  45  46  47  48 0
 3-21G
 ****


