%nproc=1
%NoSave
%Mem=1900MB
#P OB98/GEN NMR

erre ene a

0 1
  C      480.535     212.408     228.917
  O      479.736     211.873     227.882
  H      481.517     212.652     228.503
  H      480.658     211.667     229.710
  H      480.092     213.318     229.324
  P      478.159     211.730     228.119
  C      478.350     209.282     228.924
  O      477.796     210.175     227.963
  C      477.462     208.044     229.090
  O      476.138     208.463     229.514
  C      477.281     207.295     227.760
  O      477.041     205.903     227.958
  C      476.033     207.930     227.177
  O      475.368     207.098     226.229
  C      475.216     208.206     228.440
  N      470.350     209.670     227.986
  C      470.895     208.402     227.906
  N      470.023     207.392     227.676
  N      472.167     208.152     228.016
  C      472.932     209.264     228.172
  C      472.518     210.573     228.249
  C      471.091     210.836     228.156
  O      470.561     211.937     228.199
  N      473.585     211.426     228.399
  C      474.634     210.641     228.407
  N      474.292     209.316     228.304
  O      477.523     212.364     226.793
  O      477.629     212.389     229.359
  H      475.179     206.249     226.665
  H      476.605     212.652     226.966
  H      469.361     209.804     227.927
  H      475.657     210.979     228.510
  H      474.628     207.318     228.717
  H      476.328     208.849     226.652
  H      469.070     207.570     227.390
  H      478.134     207.414     227.094
  H      470.421     206.521     227.313
  H      477.857     207.402     229.879
  H      478.429     209.835     229.865
  H      479.363     208.992     228.632
  P      478.303     204.909     228.004
  C      479.008     205.026     225.446
  O      478.544     204.277     226.551
  O      477.774     203.673     228.874
  O      479.542     205.510     228.577
  H      478.283     203.611     229.705
  H      479.089     204.388     224.591
  H      479.968     205.440     225.674
  H      478.319     205.817     225.236

 6  7  8  9  10  11  12  13  14  15  26  29  33  34 0
 6-311+G(2d,p)
 ****
 36  38  39  40  41 0
 6-311+G(2d,p)
 ****
 1  2  3  4  5  16  17  18  19  20  21  22  23  24  25 0
 3-21G
 ****
 27  28  30  31  32  35  37  42  43  44  45  46  47 0
 3-21G
 ****
 48  49 0
 3-21G
 ****


