%nproc=1
%NoSave
%Mem=1900MB
#P OB98/GEN NMR

erre ene a

0 1
  C       50.968    -181.674     151.513
  O       49.879    -180.829     151.833
  H       50.609    -182.477     150.864
  H       51.371    -182.114     152.428
  H       51.750    -181.118     150.988
  P       50.235    -179.411     152.498
  C       50.286    -180.196     154.971
  O       49.614    -179.435     153.979
  C       49.560    -180.082     156.308
  O       50.126    -180.999     157.270
  C       49.627    -178.695     156.944
  O       48.636    -177.826     156.412
  C       49.332    -179.036     158.396
  O       47.917    -179.269     158.563
  C       50.101    -180.353     158.576
  N       53.269    -181.047     162.478
  C       51.907    -181.274     162.388
  N       51.305    -181.747     163.501
  N       51.200    -181.056     161.311
  C       51.931    -180.560     160.282
  C       53.280    -180.284     160.253
  C       54.053    -180.547     161.444
  O       55.264    -180.374     161.571
  N       53.667    -179.793     159.034
  C       52.550    -179.748     158.337
  N       51.467    -180.197     159.051
  O       49.279    -178.401     151.702
  O       51.664    -179.001     152.397
  H       47.646    -179.896     157.867
  H       49.811    -177.923     151.037
  H       53.763    -181.223     163.336
  H       52.471    -179.404     157.314
  H       49.598    -181.036     159.268
  H       49.605    -178.233     159.082
  H       51.785    -181.917     164.371
  H       50.632    -178.261     156.865
  H       50.308    -181.925     163.458
  H       48.516    -180.381     156.149
  H       51.308    -179.819     155.079
  H       50.320    -181.244     154.655
  P       49.104    -176.404     155.836
  C       50.097    -175.359     157.993
  O       49.031    -175.357     157.054
  O       47.872    -175.981     154.905
  O       50.384    -176.416     155.073
  H       48.144    -176.000     153.965
  H       49.914    -174.616     158.741
  H       51.016    -175.140     157.490
  H       50.164    -176.322     158.455

 6  7  8  9  10  11  12  13  14  15  26  29  33  34 0
 6-311+G(2d,p)
 ****
 36  38  39  40  41 0
 6-311+G(2d,p)
 ****
 1  2  3  4  5  16  17  18  19  20  21  22  23  24  25 0
 3-21G
 ****
 27  28  30  31  32  35  37  42  43  44  45  46  47 0
 3-21G
 ****
 48  49 0
 3-21G
 ****


