%nproc=1
%NoSave
%Mem=1900MB
#P OB98/GEN NMR

erre ene a

0 1
  C      781.661     694.399    -895.856
  O      782.377     695.615    -895.926
  H      781.441     694.064    -896.866
  H      780.720     694.555    -895.316
  H      782.245     693.622    -895.356
  P      783.132     696.136    -894.606
  C      785.329     697.064    -895.596
  O      784.712     695.995    -894.886
  C      786.868     696.931    -895.556
  O      787.296     696.838    -894.156
  C      787.320     695.650    -896.246
  O      788.633     695.753    -896.796
  C      787.356     694.635    -895.096
  O      788.193     693.517    -895.356
  C      787.834     695.504    -893.946
  N      789.330     694.284    -889.236
  C      790.107     694.619    -890.346
  N      791.438     694.602    -890.176
  N      789.598     694.925    -891.516
  C      788.238     694.834    -891.526
  C      787.369     694.490    -890.536
  C      787.928     694.192    -889.236
  O      787.305     693.863    -888.226
  N      786.061     694.472    -890.956
  C      786.133     694.797    -892.236
  N      787.435     695.045    -892.636
  O      782.872     694.989    -893.536
  O      782.691     697.484    -894.106
  H      789.076     693.864    -895.596
  H      782.928     695.357    -892.626
  H      789.766     694.073    -888.366
  H      785.284     694.881    -892.916
  H      788.916     695.590    -893.936
  H      786.347     694.246    -894.956
  H      791.869     694.212    -889.356
  H      786.622     695.338    -897.036
  H      792.013     694.556    -891.026
  H      787.338     697.834    -895.966
  H      785.028     697.992    -895.126
  H      784.997     697.080    -896.646
  P      788.785     695.619    -898.386
  C      788.917     698.076    -899.316
  O      788.131     696.943    -899.046
  O      787.755     694.436    -898.766
  O      790.166     695.327    -898.836
  H      788.236     693.621    -898.966
  H      788.305     698.840    -899.748
  H      789.697     697.814    -900.000
  H      789.348     698.437    -898.405

 6  7  8  9  10  11  12  13  14  15  26  29  33  34 0
 6-311+G(2d,p)
 ****
 36  38  39  40  41 0
 6-311+G(2d,p)
 ****
 1  2  3  4  5  16  17  18  19  20  21  22  23  24  25 0
 3-21G
 ****
 27  28  30  31  32  35  37  42  43  44  45  46  47 0
 3-21G
 ****
 48  49 0
 3-21G
 ****


