%nproc=1
%NoSave
%Mem=1900MB
#P OB98/GEN NMR

erre ene a

0 1
  C     -631.719     -98.643    -375.215
  O     -631.356    -100.003    -375.311
  P     -632.108    -100.965    -376.353
  C     -630.087    -102.236    -377.303
  O     -631.264    -102.319    -376.501
  C     -629.352    -103.582    -377.322
  O     -628.576    -103.763    -376.115
  C     -630.280    -104.782    -377.375
  O     -630.873    -104.950    -378.655
  C     -629.325    -105.900    -376.956
  O     -628.527    -106.326    -378.065
  C     -628.461    -105.183    -375.901
  N     -628.822    -105.560    -374.535
  C     -628.862    -106.926    -374.252
  O     -628.680    -107.753    -375.151
  N     -629.107    -107.318    -372.967
  C     -629.423    -106.443    -372.067
  N     -629.599    -106.888    -370.797
  C     -629.550    -104.998    -372.359
  C     -629.217    -104.627    -373.601
  O     -632.490    -100.324    -377.648
  O     -633.413    -101.447    -375.563
  H     -634.204    -101.313    -376.129
  H     -628.152    -105.523    -378.470
  H     -629.880    -104.310    -371.596
  H     -629.256    -103.585    -373.910
  H     -627.397    -105.425    -376.063
  H     -629.859    -106.784    -376.587
  H     -631.080    -104.682    -376.617
  H     -628.664    -103.584    -378.182
  H     -629.486    -107.875    -370.627
  H     -629.427    -101.466    -376.888
  H     -629.521    -106.277    -369.982
  H     -630.364    -101.939    -378.316
  P     -632.468    -105.044    -378.711
  C     -632.646    -103.718    -380.930
  O     -632.904    -104.927    -380.256
  O     -632.950    -103.647    -378.082
  O     -633.052    -106.210    -377.967
  H     -633.757    -103.784    -377.551
  H     -632.656    -103.904    -382.008
  H     -631.668    -103.308    -380.662
  H     -633.417    -102.985    -380.692
  H     -631.114     -98.164    -374.474
  H     -632.750     -98.568    -374.938
  H     -631.568     -98.166    -376.161

 3  4  5  6  7  8  9  10  11  12  13  24  27  28  29  30  32 0
 6-311+G(2d,p)
 ****
 34  35 0
 6-311+G(2d,p)
 ****
 1  2  14  15  16  17  18  19  20  21  22  23  25  26 0
 3-21G
 ****
 31  33  36  37  38  39  40  41  42  43  44  45  46 0
 3-21G
 ****


