%nproc=1
%NoSave
%Mem=1900MB
#P OB98/GEN NMR

erre ene a

0 1
  C     -898.140     860.349     410.620
  O     -897.220     861.418     410.734
  P     -897.760     862.913     410.553
  C     -897.990     864.579     408.591
  O     -897.370     863.416     409.073
  C     -897.440     864.949     407.207
  O     -896.040     865.231     407.267
  C     -897.640     863.842     406.158
  O     -897.870     864.419     404.862
  C     -896.280     863.167     406.106
  O     -896.070     862.482     404.870
  C     -895.350     864.378     406.341
  N     -891.280     861.520     405.441
  C     -892.320     861.870     404.595
  N     -892.310     861.297     403.362
  N     -893.270     862.693     404.921
  C     -893.160     863.179     406.192
  C     -892.170     862.908     407.120
  C     -891.140     861.984     406.741
  O     -890.200     861.601     407.447
  N     -892.390     863.603     408.268
  C     -893.520     864.258     408.074
  N     -894.050     864.000     406.825
  O     -896.790     863.756     411.518
  O     -899.200     863.090     410.937
  H     -895.160     862.101     404.899
  H     -897.280     864.028     412.332
  H     -890.570     860.871     405.150
  H     -894.020     864.916     408.798
  H     -895.230     864.969     405.421
  H     -896.190     862.439     406.923
  H     -891.630     860.597     403.067
  H     -898.440     863.134     406.375
  H     -893.080     861.497     402.729
  H     -897.950     865.879     406.870
  H     -897.790     865.422     409.267
  H     -899.080     864.436     408.538
  P     -898.550     863.477     403.768
  C     -897.480     861.503     402.423
  O     -897.610     862.169     403.669
  O     -898.290     864.249     402.382
  O     -900.000     863.195     404.013
  H     -898.990     864.007     401.740
  H     -896.440     861.578     402.095
  H     -898.140     861.933     401.649
  H     -897.740     860.458     402.560
  H     -897.628     859.421     410.765
  H     -898.584     860.363     409.647
  H     -898.904     860.455     411.362

 3  4  5  6  7  8  9  10  11  12  23  26  30  31 0
 6-311+G(2d,p)
 ****
 33  35  36  37  38 0
 6-311+G(2d,p)
 ****
 1  2  13  14  15  16  17  18  19  20  21  22  24  25 0
 3-21G
 ****
 27  28  29  32  34  39  40  41  42  43  44  45  46  47  48  49 0
 3-21G
 ****


