%nproc=1
%NoSave
%Mem=1900MB
#P OB98/GEN NMR

erre ene a

0 1
  C       11.116    -236.873     295.448
  O       11.483    -235.985     296.494
  P       10.391    -235.701     297.634
  C        9.165    -233.906     296.200
  O        9.867    -234.202     297.403
  C        8.460    -232.558     296.329
  O        7.486    -232.603     297.391
  C        9.380    -231.387     296.667
  O       10.118    -230.974     295.528
  C        8.356    -230.365     297.162
  O        7.703    -229.736     296.052
  C        7.362    -231.260     297.935
  N        5.668    -229.794     302.544
  C        5.197    -229.568     301.294
  N        5.717    -229.978     300.114
  C        6.831    -230.695     300.302
  C        7.444    -230.993     301.514
  C        6.815    -230.512     302.680
  N        7.295    -230.748     303.943
  N        8.593    -231.731     301.319
  C        8.668    -231.887     300.009
  N        7.627    -231.293     299.360
  O       11.276    -235.576     298.965
  O        9.326    -236.741     297.764
  H        8.407    -229.358     295.484
  H       10.793    -235.930     299.733
  H        4.284    -228.984     301.233
  H        9.459    -232.423     299.497
  H        6.320    -230.944     297.799
  H        8.807    -229.575     297.774
  H       10.060    -231.660     297.482
  H        7.923    -232.362     295.386
  H        8.414    -234.677     296.011
  H        6.868    -230.242     304.704
  H        8.219    -231.152     304.035
  H        9.878    -233.899     295.369
  P       11.557    -231.669     295.307
  C       12.955    -230.411     297.055
  O       12.603    -230.511     295.684
  O       11.643    -231.711     293.707
  O       11.739    -232.972     296.004
  H       11.424    -230.856     293.311
  H       13.705    -229.621     297.164
  H       13.366    -231.350     297.424
  H       12.071    -230.137     297.654
  H       11.931    -236.972     294.762
  H       10.262    -236.485     294.934
  H       10.879    -237.831     295.861

 3  4  5  6  7  8  9  10  11  12  22  25  29  30  31  32 0
 6-311+G(2d,p)
 ****
 33  36  37 0
 6-311+G(2d,p)
 ****
 1  2  13  14  15  16  17  18  19  20  21  23  24  26 0
 3-21G
 ****
 27  28  34  35  38  39  40  41  42  43  44  45  46  47  48 0
 3-21G
 ****


