%nproc=1
%NoSave
%Mem=1900MB
#P OB98/GEN NMR

erre ene a

0 1
  C      210.506       9.332    -463.800
  O      211.409       9.352    -462.711
  P      211.014      10.190    -461.403
  C      210.592       8.405    -459.521
  O      210.056       9.245    -460.527
  C      210.233       8.947    -458.133
  O      210.799      10.277    -457.984
  C      208.726       9.056    -457.864
  O      208.521       8.761    -456.478
  C      208.441      10.522    -458.145
  O      207.259      10.981    -457.510
  C      209.730      11.168    -457.619
  N      209.971      12.508    -458.155
  C      210.868      13.326    -457.478
  O      211.451      13.001    -456.445
  N      211.058      14.574    -458.016
  C      210.405      15.092    -459.098
  O      210.601      16.222    -459.528
  C      209.434      14.197    -459.743
  C      209.274      12.966    -459.258
  O      210.023      11.282    -462.023
  O      212.186      10.746    -460.670
  H      209.478      10.932    -462.749
  H      207.237      11.955    -457.575
  H      211.730      15.172    -457.564
  H      208.886      14.576    -460.597
  H      208.563      12.289    -459.717
  H      209.710      11.210    -456.523
  H      208.331      10.673    -459.222
  H      208.141       8.373    -458.483
  H      210.712       8.304    -457.382
  H      211.681       8.370    -459.618
  H      210.207       7.389    -459.655
  P      207.172       7.982    -456.062
  C      207.945       5.532    -456.567
  O      207.122       6.625    -456.909
  O      206.077       8.902    -456.790
  O      206.939       7.866    -454.590
  H      206.304       9.094    -457.717
  H      207.535       4.629    -457.024
  H      207.988       5.390    -455.485
  H      208.956       5.699    -456.957
  H      210.912       8.734    -464.589
  H      210.350      10.330    -464.153
  H      209.573       8.917    -463.482

 3  4  5  6  7  8  9  10  11  12  13  24  28  29  30  31  32 0
 6-311+G(2d,p)
 ****
 33  34 0
 6-311+G(2d,p)
 ****
 1  2  14  15  16  17  18  19  20  21  22  23  25  26  27 0
 3-21G
 ****
 35  36  37  38  39  40  41  42  43  44  45 0
 3-21G
 ****


