%nproc=1
%NoSave
%Mem=1900MB
#P OB98/GEN NMR

erre ene a

0 1
  C       55.452      27.771     -35.236
  O       55.574      27.707     -36.640
  P       54.594      26.798     -37.522
  C       55.681      24.656     -36.587
  O       54.470      25.384     -36.764
  C       55.495      23.566     -35.524
  O       54.890      24.170     -34.337
  C       54.574      22.421     -35.993
  O       55.135      21.115     -35.847
  C       53.295      22.675     -35.210
  O       52.461      21.539     -35.088
  C       53.842      23.277     -33.910
  N       52.811      23.958     -33.132
  C       52.429      23.367     -31.931
  O       52.905      22.326     -31.486
  N       51.409      23.983     -31.257
  C       50.673      25.037     -31.709
  O       49.708      25.477     -31.098
  C       51.098      25.595     -33.002
  C       52.144      25.058     -33.635
  O       54.948      26.691     -38.967
  O       53.154      27.446     -37.249
  H       52.967      20.844     -34.626
  H       52.875      27.448     -36.317
  H       51.122      23.565     -30.386
  H       50.526      26.426     -33.390
  H       52.480      25.448     -34.591
  H       54.303      22.514     -33.281
  H       52.719      23.438     -35.749
  H       54.365      22.501     -37.066
  H       56.487      23.190     -35.255
  H       56.462      25.346     -36.261
  H       55.999      24.226     -37.543
  P       54.975      19.923     -36.904
  C       53.542      18.606     -35.177
  O       53.680      19.071     -36.505
  O       56.209      19.119     -37.147
  O       54.518      20.672     -38.244
  H       54.824      20.166     -39.021
  H       52.948      17.687     -35.189
  H       53.011      19.358     -34.587
  H       54.513      18.398     -34.720
  H       56.198      28.430     -34.843
  H       55.586      26.794     -34.821
  H       54.480      28.138     -34.979

 3  4  5  6  7  8  9  10  11  12  13  23  28  29  30  31  32 0
 6-311+G(2d,p)
 ****
 33  34 0
 6-311+G(2d,p)
 ****
 1  2  14  15  16  17  18  19  20  21  22  24  25  26  27 0
 3-21G
 ****
 35  36  37  38  39  40  41  42  43  44  45 0
 3-21G
 ****


