%nproc=1
%NoSave
%Mem=1900MB
#P OB98/GEN NMR

erre ene a

0 1
  C     -528.400    -220.534    -374.574
  O     -528.431    -219.767    -375.756
  H     -528.887    -221.492    -374.769
  H     -528.949    -220.026    -373.774
  H     -527.369    -220.722    -374.261
  P     -527.819    -218.281    -375.742
  C     -529.881    -217.297    -374.564
  O     -528.485    -217.554    -374.466
  C     -530.417    -216.657    -373.282
  O     -529.500    -215.622    -372.837
  C     -531.804    -216.013    -373.446
  O     -532.650    -216.406    -372.360
  C     -531.517    -214.519    -373.354
  O     -532.647    -213.760    -372.930
  C     -530.313    -214.518    -372.399
  N     -529.600    -213.247    -372.423
  C     -529.814    -212.395    -371.331
  O     -530.566    -212.735    -370.418
  N     -529.221    -211.160    -371.331
  C     -528.507    -210.790    -372.350
  N     -527.967    -209.541    -372.298
  C     -528.275    -211.641    -373.537
  C     -528.842    -212.851    -373.510
  O     -527.953    -217.538    -377.034
  O     -526.294    -218.464    -375.285
  H     -533.355    -213.866    -373.602
  H     -525.775    -217.689    -375.590
  H     -527.683    -211.280    -374.361
  H     -528.731    -213.548    -374.330
  H     -530.637    -214.719    -371.364
  H     -531.208    -214.150    -374.340
  H     -532.285    -216.268    -374.385
  H     -530.423    -217.419    -372.491
  H     -528.156    -208.981    -371.469
  H     -530.398    -218.243    -374.767
  H     -527.416    -209.137    -373.045
  H     -530.046    -216.610    -375.405
  P     -533.633    -217.651    -372.643
  C     -535.669    -216.089    -373.053
  O     -534.846    -217.123    -373.562
  O     -534.317    -217.913    -371.211
  O     -532.926    -218.863    -373.145
  H     -533.981    -218.748    -370.840
  H     -536.424    -215.848    -373.772
  H     -535.073    -215.222    -372.857
  H     -536.132    -216.416    -372.145

 6  7  8  9  10  11  12  13  14  15  16  26  30  31  32  33  35 0
 6-311+G(2d,p)
 ****
 37  38 0
 6-311+G(2d,p)
 ****
 1  2  3  4  5  17  18  19  20  21  22  23  24  25 0
 3-21G
 ****
 27  28  29  34  36  39  40  41  42  43  44  45  46 0
 3-21G
 ****


