%nproc=1
%NoSave
%Mem=1900MB
#P OB98/GEN NMR

erre ene a

0 1
  C     -254.985    -809.145    -204.413
  O     -256.301    -808.745    -204.087
  H     -254.818    -808.963    -205.478
  H     -254.859    -810.216    -204.218
  H     -254.262    -808.572    -203.832
  P     -256.781    -808.992    -202.574
  C     -257.678    -811.034    -201.236
  O     -257.345    -810.492    -202.508
  C     -258.184    -812.468    -201.401
  O     -259.407    -812.466    -202.172
  C     -257.224    -813.378    -202.153
  O     -256.156    -813.832    -201.335
  C     -258.164    -814.500    -202.578
  O     -258.331    -815.465    -201.524
  C     -259.482    -813.744    -202.848
  N     -259.746    -813.587    -204.283
  C     -260.856    -814.284    -204.769
  O     -261.583    -814.982    -204.060
  N     -261.080    -814.170    -206.107
  C     -260.299    -813.489    -207.011
  O     -260.521    -813.489    -208.213
  C     -259.158    -812.769    -206.429
  C     -258.919    -812.857    -205.117
  O     -258.099    -808.083    -202.455
  O     -255.768    -808.661    -201.529
  H     -257.891    -807.265    -201.968
  H     -257.432    -815.744    -201.264
  H     -261.878    -814.676    -206.485
  H     -258.520    -812.213    -207.114
  H     -258.070    -812.355    -204.675
  H     -260.334    -814.282    -202.412
  H     -257.787    -815.045    -203.442
  H     -256.853    -812.875    -203.059
  H     -258.404    -812.876    -200.404
  H     -258.467    -810.431    -200.775
  H     -256.788    -811.006    -200.597
  P     -254.656    -813.722    -201.907
  C     -253.207    -815.378    -203.346
  O     -254.494    -814.899    -202.987
  O     -253.813    -814.235    -200.643
  O     -254.294    -812.357    -202.397
  H     -254.262    -814.930    -200.140
  H     -253.306    -816.156    -204.074
  H     -252.714    -815.763    -202.477
  H     -252.630    -814.576    -203.758

 6  7  8  9  10  11  12  13  14  15  16  27  31  32  33  34  35 0
 6-311+G(2d,p)
 ****
 36  37 0
 6-311+G(2d,p)
 ****
 1  2  3  4  5  17  18  19  20  21  22  23  24  25 0
 3-21G
 ****
 26  28  29  30  38  39  40  41  42  43  44  45 0
 3-21G
 ****


