%nproc=1
%NoSave
%Mem=1900MB
#P OB98/GEN NMR

erre ene a

0 1
  C      406.665    -423.899     642.756
  O      405.663    -424.710     642.173
  H      407.360    -424.541     643.307
  H      406.215    -423.186     643.452
  H      407.220    -423.365     641.979
  P      404.551    -423.957     641.296
  C      403.119    -423.757     643.456
  O      403.164    -424.126     642.083
  C      401.780    -424.177     644.055
  O      400.698    -423.681     643.230
  C      401.577    -425.684     644.125
  O      402.267    -426.273     645.214
  C      400.063    -425.773     644.241
  O      399.632    -425.596     645.599
  C      399.592    -424.602     643.374
  N      395.982    -423.974     639.817
  C      396.225    -423.328     640.983
  N      397.214    -423.553     641.870
  C      398.028    -424.532     641.437
  C      397.910    -425.274     640.273
  C      396.828    -424.961     639.438
  N      396.563    -425.632     638.264
  N      398.917    -426.222     640.199
  C      399.626    -426.047     641.294
  N      399.133    -425.039     642.070
  O      404.386    -424.916     640.024
  O      404.895    -422.563     640.899
  H      398.686    -425.844     645.620
  H      404.890    -424.552     639.272
  H      395.521    -422.540     641.239
  H      400.501    -426.631     641.568
  H      398.763    -424.046     643.840
  H      399.702    -426.745     643.903
  H      401.885    -426.146     643.179
  H      401.681    -423.724     645.054
  H      403.229    -422.673     643.543
  H      403.946    -424.241     643.981
  H      395.736    -425.400     637.746
  H      397.123    -426.442     638.030
  P      403.321    -427.439     644.888
  C      401.685    -429.378     644.267
  O      402.598    -428.831     645.208
  O      404.413    -427.297     646.043
  O      403.930    -427.361     643.529
  H      405.301    -427.512     645.691
  H      401.299    -430.303     644.641
  H      402.190    -429.551     643.339
  H      400.879    -428.692     644.112

 6  7  8  9  10  11  12  13  14  15  25  28  32  33  34  35 0
 6-311+G(2d,p)
 ****
 36  37  40 0
 6-311+G(2d,p)
 ****
 1  2  3  4  5  16  17  18  19  20  21  22  23  24 0
 3-21G
 ****
 26  27  29  30  31  38  39 41  42  43  44  45  46  47  48 0
 3-21G
 ****


