%nproc=1
%NoSave
%Mem=1900MB
#P OB98/GEN NMR

erre ene a

0 1
  C      269.165    -217.061    -153.170
  O      268.099    -217.332    -152.282
  H      268.780    -217.081    -154.193
  H      269.948    -217.816    -153.076
  H      269.579    -216.068    -152.974
  P      268.426    -217.473    -150.720
  C      269.443    -215.234    -149.922
  O      268.265    -216.011    -150.083
  C      269.126    -213.900    -149.233
  O      270.359    -213.143    -149.084
  C      268.140    -213.016    -150.019
  O      267.412    -212.234    -149.061
  C      269.090    -212.143    -150.812
  O      268.430    -211.031    -151.364
  C      270.170    -211.878    -149.758
  N      271.406    -211.376    -150.338
  C      271.490    -209.993    -150.513
  O      270.546    -209.269    -150.197
  N      272.627    -209.465    -151.069
  C      273.568    -210.257    -151.480
  N      274.662    -209.673    -152.038
  C      273.494    -211.729    -151.368
  C      272.398    -212.215    -150.789
  O      269.704    -218.166    -150.383
  O      267.163    -218.264    -150.132
  H      267.967    -210.515    -150.665
  H      267.409    -219.190    -149.951
  H      274.298    -212.346    -151.743
  H      272.253    -213.285    -150.662
  H      269.818    -211.157    -149.010
  H      269.514    -212.701    -151.653
  H      267.450    -213.593    -150.637
  H      268.755    -214.105    -148.221
  H      274.667    -208.662    -152.106
  H      269.857    -215.051    -150.917
  H      275.447    -210.187    -152.411
  H      270.182    -215.786    -149.329
  P      265.810    -212.147    -149.046
  C      265.218    -214.067    -147.427
  O      265.265    -212.656    -147.628
  O      265.157    -212.800    -150.221
  O      265.480    -210.578    -149.028
  H      264.636    -210.425    -149.491
  H      264.839    -214.275    -146.448
  H      266.203    -214.474    -147.522
  H      264.577    -214.511    -148.160

 6  7  8  9  10  11  12  13  14  15  16  26  30  31  32  33  35 0
 6-311+G(2d,p)
 ****
 37  38 0
 6-311+G(2d,p)
 ****
 1  2  3  4  5  17  18  19  20  21  22  23  24  25 0
 3-21G
 ****
 27  28  29  34  36  39  40  41  42  43  44  45  46 0
 3-21G
 ****


