%nproc=1
%NoSave
%Mem=1900MB
#P OB98/GEN NMR

erre ene a

0 1
  C      130.960     122.281     -12.122
  O      131.236     121.098     -11.368
  P      132.555     120.286     -11.791
  C      133.942     121.276      -9.837
  O      133.455     120.103     -10.473
  C      134.166     121.035      -8.339
  O      132.891     120.966      -7.631
  C      134.924     119.732      -8.030
  O      135.741     119.994      -6.882
  C      133.790     118.781      -7.681
  O      134.227     117.615      -7.004
  C      132.894     119.726      -6.887
  N      130.027     116.327      -4.385
  C      131.354     116.577      -4.368
  N      132.045     117.502      -5.071
  C      131.214     118.217      -5.850
  C      129.840     118.077      -5.977
  C      129.238     117.075      -5.194
  N      127.890     116.801      -5.220
  N      129.341     118.985      -6.901
  C      130.413     119.600      -7.367
  N      131.549     119.230      -6.705
  O      133.375     121.338     -12.675
  O      132.267     119.023     -12.534
  H      134.582     117.856      -6.123
  H      133.239     121.167     -13.624
  H      131.941     115.948      -3.705
  H      130.421     120.318      -8.178
  H      133.297     119.940      -5.890
  H      133.292     118.459      -8.604
  H      135.558     119.389      -8.851
  H      134.719     121.894      -7.931
  H      133.230     122.095      -9.964
  H      127.551     116.059      -4.626
  H      127.272     117.328      -5.818
  H      134.867     121.594     -10.331
  P      137.327     119.779      -6.997
  C      138.105     122.091      -7.794
  O      137.954     121.225      -6.684
  O      137.498     119.702      -8.591
  O      137.891     118.609      -6.262
  H      137.048     120.444      -9.028
  H      138.461     123.060      -7.435
  H      137.146     122.229      -8.302
  H      138.841     121.679      -8.491
  H      130.064     122.737     -11.755
  H      130.834     122.025     -13.153
  H      131.776     122.966     -12.022

 3  4  5  6  7  8  9  10  11  12  22  25  29  30  31  32 0
 6-311+G(2d,p)
 ****
 33  36  37 0
 6-311+G(2d,p)
 ****
 1  2  13  14  15  16  17  18  19  20  21  23  24  26 0
 3-21G
 ****
 27  28  34  35  38  39  40  41  42  43  44  45  46  47  48 0
 3-21G
 ****


