%nproc=1
%NoSave
%Mem=1900MB
#P OB98/GEN NMR

erre ene a

0 1
  C        6.657     -65.455     124.147
  O        7.645     -65.418     125.181
  P        7.144     -65.641     126.690
  C        8.153     -68.019     127.094
  O        8.214     -66.630     127.367
  C        9.361     -68.746     127.696
  O       10.593     -68.081     127.281
  C        9.362     -68.815     129.227
  O        9.904     -70.094     129.587
  C       10.321     -67.707     129.619
  O       10.853     -67.898     130.922
  C       11.343     -67.803     128.482
  N       12.150     -66.594     128.342
  C       13.442     -66.637     128.849
  O       13.887     -67.604     129.466
  N       14.196     -65.509     128.667
  C       13.763     -64.339     128.109
  O       14.482     -63.357     127.970
  C       12.352     -64.315     127.693
  C       11.623     -65.426     127.830
  O        5.849     -66.548     126.463
  O        6.904     -64.361     127.419
  H        5.947     -67.188     125.737
  H       11.598     -67.277     131.057
  H       15.147     -65.531     129.000
  H       11.956     -63.388     127.300
  H       10.577     -65.436     127.553
  H       12.018     -68.652     128.646
  H        9.806     -66.740     129.594
  H        8.363     -68.702     129.659
  H        9.386     -69.762     127.279
  H        8.145     -68.184     126.012
  H        7.212     -68.423     127.486
  P        9.338     -70.817     130.910
  C        7.189     -71.933     129.916
  O        8.494     -72.088     130.427
  O        8.198     -69.768     131.332
  O       10.345     -71.041     131.988
  H        7.635     -69.499     130.591
  H        6.888     -72.865     129.431
  H        7.147     -71.129     129.175
  H        6.492     -71.719     130.730
  H        7.126     -65.293     123.199
  H        5.930     -64.689     124.321
  H        6.176     -66.411     124.148

 3  4  5  6  7  8  9  10  11  12  13  24  28  29  30  31  32 0
 6-311+G(2d,p)
 ****
 33  34 0
 6-311+G(2d,p)
 ****
 1  2  14  15  16  17  18  19  20  21  22  23  25  26  27 0
 3-21G
 ****
 35  36  37  38  39  40  41  42  43  44  45 0
 3-21G
 ****


