%nproc=1
%NoSave
%Mem=1900MB
#P OB98/GEN NMR

erre ene a

0 1
  C     -615.310    -784.868    1515.016
  O     -614.359    -785.601    1514.246
  P     -613.566    -786.896    1514.718
  C     -611.032    -786.125    1514.637
  O     -612.104    -786.880    1514.075
  C     -610.340    -785.250    1513.586
  O     -609.956    -786.060    1512.446
  C     -611.257    -784.143    1513.043
  O     -610.626    -782.878    1512.891
  C     -611.867    -784.751    1511.781
  O     -612.383    -783.839    1510.872
  C     -610.678    -785.612    1511.304
  N     -609.926    -788.358    1507.030
  C     -609.322    -787.177    1507.434
  N     -608.404    -786.643    1506.577
  N     -609.602    -786.558    1508.562
  C     -610.598    -787.162    1509.246
  C     -611.259    -788.313    1508.958
  C     -610.906    -789.026    1507.753
  O     -611.412    -790.063    1507.335
  N     -612.180    -788.632    1509.946
  C     -612.070    -787.651    1510.814
  N     -611.098    -786.731    1510.433
  O     -614.313    -788.177    1514.644
  O     -613.245    -786.602    1516.283
  H     -612.967    -783.196    1511.380
  H     -613.251    -787.474    1516.722
  H     -609.666    -788.809    1506.171
  H     -612.644    -787.551    1511.726
  H     -609.993    -785.045    1510.664
  H     -612.695    -785.430    1512.099
  H     -608.234    -786.989    1505.639
  H     -612.079    -783.912    1513.756
  H     -608.146    -785.663    1506.780
  H     -609.425    -784.822    1514.050
  H     -610.325    -786.874    1515.032
  H     -611.401    -785.533    1515.482
  P     -610.783    -781.544    1513.777
  C     -612.248    -780.350    1512.025
  O     -611.019    -780.300    1512.838
  O     -609.291    -781.256    1514.375
  O     -611.776    -781.676    1514.923
  H     -609.311    -781.333    1515.349
  H     -612.150    -779.582    1511.238
  H     -613.092    -780.116    1512.688
  H     -612.364    -781.329    1511.577
  H     -615.679    -784.046    1514.439
  H     -614.841    -784.498    1515.904
  H     -616.123    -785.510    1515.283

 3  4  5  6  7  8  9  10  11  12  23  26  30  31 0
 6-311+G(2d,p)
 ****
 33  35  36  37  38 0
 6-311+G(2d,p)
 ****
 1  2  13  14  15  16  17  18  19  20  21  22  24  25 0
 3-21G
 ****
 27  28  29  32  34  39  40  41  42  43  44  45  46  47  48  49 0
 3-21G
 ****


