%nproc=1
%NoSave
%Mem=1900MB
#P OB98/GEN NMR

erre ene a

0 1
  C       32.363     -11.153      29.860
  O       33.463     -11.427      29.004
  P       34.911     -10.907      29.461
  C       36.253      -8.709      29.217
  O       35.028      -9.385      28.964
  C       36.074      -7.198      29.110
  O       34.993      -6.788      29.993
  C       37.320      -6.382      29.499
  O       37.503      -5.317      28.553
  C       36.934      -5.754      30.829
  O       37.653      -4.553      31.084
  C       35.429      -5.567      30.623
  N       34.959      -2.504      34.617
  C       35.665      -2.321      33.440
  N       36.396      -1.187      33.347
  N       35.664      -3.176      32.449
  C       34.865      -4.248      32.672
  C       34.109      -4.537      33.786
  C       34.171      -3.613      34.900
  O       33.638      -3.760      36.000
  N       33.420      -5.714      33.632
  C       33.757      -6.140      32.428
  N       34.670      -5.309      31.824
  O       35.897     -11.705      28.482
  O       35.254     -11.150      30.891
  H       38.597      -4.795      31.153
  H       36.550     -12.208      29.011
  H       35.010      -1.823      35.353
  H       33.393      -7.053      31.968
  H       35.242      -4.736      29.924
  H       37.142      -6.468      31.637
  H       36.412      -0.469      34.056
  H       38.238      -6.973      29.569
  H       36.901      -1.025      32.486
  H       35.757      -6.955      28.084
  H       37.000      -9.033      28.484
  H       36.602      -8.977      30.219
  P       38.945      -5.238      27.852
  C       41.189      -4.154      28.628
  O       39.960      -4.755      28.995
  O       38.821      -3.963      26.889
  O       39.328      -6.479      27.114
  H       39.454      -4.030      26.151
  H       41.232      -3.933      27.553
  H       42.006      -4.829      28.885
  H       41.305      -3.218      29.183
  H       31.469     -11.555      29.432
  H       32.257     -10.095      29.977
  H       32.534     -11.603      30.816

 3  4  5  6  7  8  9  10  11  12  23  26  30  31  33  0
 6-311+G(2d,p)
 ****
 35  36  37  38 0
 6-311+G(2d,p)
 ****
 1  2  13  14  15  16  17  18  19  20  21  22  24  25  27  28  29 0
 3-21G
 ****
 32  34  39  40  41  42  43  44  45  46  47  48  49 0
 3-21G
 ****


