%nproc=1
%NoSave
%Mem=1900MB
#P OB98/GEN NMR

erre ene a

0 1
  C      -96.773     -79.676      -1.928
  O      -96.229     -78.439      -1.508
  P      -97.027     -77.616      -0.388
  C      -97.178     -75.659      -2.105
  O      -97.844     -76.460      -1.138
  C      -98.092     -75.440      -3.311
  O      -98.958     -76.580      -3.501
  C      -99.021     -74.242      -3.162
  O      -98.342     -73.025      -3.422
  C     -100.104     -74.563      -4.182
  O      -99.705     -74.161      -5.502
  C     -100.189     -76.100      -4.082
  N     -101.356     -76.550      -3.332
  C     -102.522     -76.732      -4.070
  O     -102.589     -76.509      -5.279
  N     -103.619     -77.139      -3.364
  C     -103.682     -77.325      -2.014
  O     -104.713     -77.638      -1.430
  C     -102.427     -77.090      -1.281
  C     -101.342     -76.713      -1.961
  O      -95.879     -76.823       0.396
  O      -97.848     -78.456       0.531
  H     -100.522     -74.107      -6.034
  H      -96.107     -76.760       1.343
  H     -104.467     -77.301      -3.884
  H     -102.440     -77.228      -0.208
  H     -100.413     -76.521      -1.437
  H     -100.238     -76.540      -5.087
  H     -101.044     -74.049      -3.961
  H      -99.465     -74.235      -2.158
  H      -97.467     -75.333      -4.206
  H      -96.262     -76.164      -2.423
  H      -96.906     -74.703      -1.649
  P      -98.107     -72.042      -2.173
  C      -99.472     -70.178      -3.392
  O      -99.307     -70.983      -2.245
  O      -96.810     -71.241      -2.665
  O      -97.939     -72.770      -0.882
  H      -96.794     -71.128      -3.630
  H      -99.205     -70.718      -4.303
  H      -98.847     -69.286      -3.300
  H     -100.519     -69.871      -3.457
  H      -96.139     -80.110      -2.673
  H      -97.748     -79.516      -2.339
  H      -96.843     -80.338      -1.090

 3  4  5  6  7  8  9  10  11  12  13  23  28  29  30  31  32 0
 6-311+G(2d,p)
 ****
 33  34 0
 6-311+G(2d,p)
 ****
 1  2  14  15  16  17  18  19  20  21  22  24  25  26 0
 3-21G
 ****
 27  35  36  37  38  39  40  41  42  43  44  45 0
 3-21G
 ****


