%nproc=1
%NoSave
%Mem=1900MB
#P OB98/GEN NMR

erre ene a

0 1
  C     -132.975     -33.242     -77.087
  O     -134.272     -33.251     -77.646
  H     -132.866     -32.342     -76.477
  H     -132.220     -33.221     -77.876
  H     -132.826     -34.117     -76.448
  P     -134.688     -34.476     -78.595
  C     -134.903     -33.651     -81.043
  O     -134.033     -34.110     -80.019
  C     -135.131     -32.148     -80.905
  O     -133.886     -31.418     -80.979
  C     -135.999     -31.530     -81.996
  O     -137.377     -31.838     -81.876
  C     -135.714     -30.058     -81.756
  O     -136.432     -29.611     -80.593
  C     -134.190     -30.093     -81.496
  N     -133.406     -29.820     -82.701
  C     -133.142     -28.475     -82.987
  O     -133.566     -27.583     -82.254
  N     -132.430     -28.166     -84.121
  C     -132.036     -29.115     -84.913
  N     -131.340     -28.751     -86.026
  C     -132.308     -30.542     -84.662
  C     -132.987     -30.822     -83.551
  O     -136.143     -34.817     -78.626
  O     -133.759     -35.688     -78.116
  H     -137.382     -29.688     -80.800
  H     -133.984     -36.478     -78.666
  H     -131.985     -31.293     -85.368
  H     -133.233     -31.849     -83.300
  H     -133.909     -29.370     -80.719
  H     -136.013     -29.420     -82.587
  H     -135.625     -31.799     -82.992
  H     -135.551     -31.969     -79.907
  H     -131.170     -27.765     -86.172
  H     -135.846     -34.200     -80.962
  H     -131.061     -29.415     -86.736
  H     -134.461     -33.845     -82.024
  P     -138.225     -31.930     -83.238
  C     -140.041     -30.053     -83.330
  O     -138.696     -30.436     -83.574
  O     -139.564     -32.670     -82.781
  O     -137.539     -32.627     -84.370
  H     -139.525     -33.622     -82.997
  H     -140.177     -29.029     -83.611
  H     -140.262     -30.170     -82.290
  H     -140.698     -30.671     -83.906

 6  7  8  9  10  11  12  13  14  15  16  26  30  31  32  33  35 0
 6-311+G(2d,p)
 ****
 37  38 0
 6-311+G(2d,p)
 ****
 1  2  3  4  5  17  18  19  20  21  22  23  24  25 0
 3-21G
 ****
 27  28  29  34  36  39  40  41  42  43  44  45  46 0
 3-21G
 ****


