%nproc=1
%NoSave
%Mem=1900MB
#P OB98/GEN NMR

erre ene a

0 1
  C     -257.254    -634.721    -327.126
  O     -257.834    -634.154    -328.282
  P     -256.976    -633.192    -329.237
  C     -259.074    -632.953    -330.714
  O     -258.045    -632.273    -330.014
  C     -260.375    -632.150    -330.673
  O     -261.022    -632.283    -329.381
  C     -260.180    -630.648    -330.860
  O     -259.717    -630.195    -332.119
  C     -261.514    -630.116    -330.384
  O     -262.514    -630.218    -331.407
  C     -261.850    -631.091    -329.215
  N     -261.648    -630.465    -327.912
  C     -262.802    -630.130    -327.209
  O     -263.940    -630.337    -327.639
  N     -262.613    -629.525    -325.997
  C     -261.408    -629.166    -325.459
  O     -261.320    -628.576    -324.382
  C     -260.221    -629.524    -326.251
  C     -260.388    -630.150    -327.421
  O     -255.991    -633.878    -330.115
  O     -256.317    -632.151    -328.206
  H     -263.336    -629.811    -331.059
  H     -256.960    -631.631    -327.683
  H     -263.441    -629.265    -325.484
  H     -259.256    -629.275    -325.843
  H     -259.536    -630.419    -328.028
  H     -262.902    -631.427    -329.285
  H     -261.460    -629.063    -330.097
  H     -259.429    -630.309    -330.133
  H     -261.058    -632.572    -331.418
  H     -259.246    -633.930    -330.238
  H     -258.750    -633.139    -331.755
  P     -258.629    -629.034    -332.291
  C     -258.462    -629.490    -334.844
  O     -258.667    -628.537    -333.814
  O     -257.278    -629.267    -331.681
  O     -259.335    -627.811    -331.531
  H     -258.656    -627.238    -331.134
  H     -258.478    -628.969    -335.806
  H     -259.252    -630.237    -334.838
  H     -257.485    -629.975    -334.724
  H     -257.979    -635.328    -326.624
  H     -256.927    -633.940    -326.471
  H     -256.416    -635.325    -327.407

 3  4  5  6  7  8  9  10  11  12  13  23  28  29  30  31  32 0
 6-311+G(2d,p)
 ****
 33  34 0
 6-311+G(2d,p)
 ****
 1  2  14  15  16  17  18  19  20  21  22  24  25  26  27 0
 3-21G
 ****
 35  36  37  38  39  40  41  42  43  44  45 0
 3-21G
 ****


