%nproc=1
%NoSave
%Mem=1900MB
#P OB98/GEN NMR

erre ene a

0 1
  C      138.574    -107.572      12.167
  O      139.576    -106.578      12.252
  H      137.790    -107.340      12.892
  H      138.992    -108.555      12.400
  H      138.139    -107.579      11.165
  P      140.845    -106.755      11.287
  C      142.404    -106.711      13.338
  O      142.061    -106.093      12.103
  C      143.548    -105.953      14.014
  O      144.750    -106.132      13.223
  C      143.292    -104.450      14.138
  O      143.809    -103.987      15.384
  C      144.102    -103.855      12.999
  O      144.477    -102.504      13.247
  C      145.274    -104.831      12.910
  N      148.079    -102.098       9.641
  C      147.758    -101.904      10.938
  N      147.015    -102.695      11.742
  C      146.631    -103.806      11.090
  C      146.878    -104.140       9.771
  C      147.637    -103.220       9.026
  N      147.946    -103.398       7.697
  N      146.278    -105.344       9.456
  C      145.691    -105.736      10.571
  N      145.863    -104.830      11.582
  O      140.670    -106.261       9.890
  O      141.146    -108.319      11.429
  H      143.687    -102.017      13.561
  H      141.091    -108.610      12.358
  H      148.141    -100.992      11.388
  H      145.123    -106.652      10.693
  H      146.074    -104.593      13.622
  H      143.509    -103.877      12.076
  H      142.234    -104.197      14.060
  H      143.741    -106.408      14.993
  H      142.705    -107.750      13.168
  H      148.508    -102.695       7.242
  H      147.642    -104.237       7.227
  H      141.516    -106.705      13.976
  P      142.836    -103.978      16.659
  C      142.132    -101.524      16.281
  O      142.697    -102.468      17.185
  O      143.125    -105.000      17.706
  O      141.399    -104.238      15.996
  H      140.874    -104.809      16.591
  H      142.094    -100.562      16.748
  H      141.142    -101.831      16.017
  H      142.735    -101.469      15.399

 6  7  8  9  10  11  12  13  14  15  25  28  32  33  34  35 0
 6-311+G(2d,p)
 ****
 36  39  40 0
 6-311+G(2d,p)
 ****
 1  2  3  4  5  16  17  18  19  20  21  22  23  24 0
 3-21G
 ****
 26  27  29  30  31  37  38  41  42  43  44  45  46  47 0
 3-21G
 ****
 48 0
 3-21G
 ****


