%nproc=1
%NoSave
%Mem=1900MB
#P OB98/GEN NMR

erre ene a

0 1
  C       24.697     457.813    -190.267
  O       24.897     456.690    -191.101
  P       24.610     456.767    -192.674
  C       22.711     455.047    -192.746
  O       24.041     455.344    -193.146
  C       22.548     453.566    -192.409
  O       22.443     452.803    -193.639
  C       23.703     452.973    -191.589
  O       23.134     452.048    -190.657
  C       24.526     452.242    -192.630
  O       25.343     451.229    -192.063
  C       23.419     451.743    -193.568
  N       23.924     451.397    -194.888
  C       24.619     450.191    -195.003
  O       24.898     449.537    -193.996
  N       24.993     449.767    -196.255
  C       24.853     450.567    -197.270
  N       25.174     450.077    -198.501
  C       24.351     451.948    -197.139
  C       23.869     452.280    -195.945
  O       25.742     457.287    -193.500
  O       23.328     457.726    -192.795
  H       23.529     458.446    -193.424
  H       25.992     451.647    -191.456
  H       24.371     452.616    -197.987
  H       23.451     453.263    -195.756
  H       22.919     450.866    -193.139
  H       25.178     452.955    -193.155
  H       24.269     453.737    -191.043
  H       21.602     453.442    -191.869
  H       25.479     449.114    -198.554
  H       22.040     455.302    -193.569
  H       24.808     450.495    -199.356
  H       22.433     455.669    -191.887
  P       23.097     452.456    -189.103
  C       24.755     450.575    -188.427
  O       23.482     451.158    -188.245
  O       21.516     452.578    -188.838
  O       23.771     453.741    -188.732
  H       21.366     453.183    -188.088
  H       24.815     449.671    -187.820
  H       25.543     451.268    -188.106
  H       24.909     450.303    -189.476
  H       24.944     457.556    -189.258
  H       23.672     458.117    -190.317
  H       25.324     458.616    -190.594

 3  4  5  6  7  8  9  10  11  12  13  24  27  28  29  30  32 0
 6-311+G(2d,p)
 ****
 34  35 0
 6-311+G(2d,p)
 ****
 1  2  14  15  16  17  18  19  20  21  22  23  25  26 0
 3-21G
 ****
 31  33  36  37  38  39  40  41  42  43  44  45  46 0
 3-21G
 ****


