%nproc=1
%NoSave
%Mem=1900MB
#P OB98/GEN NMR

erre ene a

0 1
  C     -675.898     -41.379     173.189
  O     -674.649     -41.877     173.629
  P     -674.357     -43.450     173.666
  C     -674.870     -43.734     176.226
  O     -675.162     -44.082     174.894
  C     -675.957     -44.316     177.143
  O     -677.248     -43.811     176.766
  C     -676.002     -45.840     177.057
  O     -675.222     -46.427     178.091
  C     -677.488     -46.139     177.177
  O     -677.895     -46.117     178.561
  C     -678.104     -44.936     176.419
  N     -678.192     -45.011     174.953
  C     -679.178     -44.289     174.281
  O     -679.985     -43.551     174.842
  N     -679.224     -44.474     172.919
  C     -678.370     -45.244     172.184
  O     -678.571     -45.583     171.023
  C     -677.197     -45.750     172.911
  C     -677.177     -45.636     174.236
  O     -672.835     -43.528     174.149
  O     -674.580     -44.171     172.378
  H     -677.799     -45.197     178.871
  H     -672.241     -43.654     173.384
  H     -680.023     -44.059     172.448
  H     -676.427     -46.254     172.345
  H     -676.337     -46.045     174.798
  H     -679.112     -44.712     176.795
  H     -677.725     -47.132     176.807
  H     -675.659     -46.178     176.066
  H     -675.755     -44.004     178.179
  H     -674.826     -42.646     176.335
  H     -673.889     -44.125     176.508
  P     -674.520     -47.840     177.841
  C     -676.595     -49.171     178.552
  O     -675.718     -48.851     177.491
  O     -673.589     -48.298     178.921
  O     -673.755     -47.635     176.447
  H     -672.815     -47.421     176.611
  H     -677.444     -49.715     178.151
  H     -676.942     -48.266     179.047
  H     -676.076     -49.817     179.273
  H     -675.893     -40.310     173.239
  H     -676.676     -41.762     173.816
  H     -676.069     -41.688     172.179

 3  4  5  6  7  8  9  10  11  12  13  23  28  29  30  31  32 0
 6-311+G(2d,p)
 ****
 33  34 0
 6-311+G(2d,p)
 ****
 1  2  14  15  16  17  18  19  20  21  22  24  25  26  27 0
 3-21G
 ****
 35  36  37  38  39  40  41  42  43  44  45 0
 3-21G
 ****


