%nproc=1
%NoSave
%Mem=1900MB
#P OB98/GEN NMR

erre ene a

0 1
  C       12.376     306.961     -92.693
  O       12.576     308.036     -91.798
  H       13.343     306.491     -92.895
  H       11.961     307.323     -93.636
  H       11.709     306.212     -92.257
  P       11.297     308.816     -91.230
  C       10.906     306.950     -89.495
  O       10.345     307.718     -90.554
  C        9.968     305.805     -89.130
  O       10.510     305.045     -88.027
  C        8.584     306.259     -88.682
  O        7.804     306.666     -89.789
  C        8.098     305.006     -87.969
  O        7.638     304.023     -88.909
  C        9.392     304.524     -87.272
  N        9.465     304.930     -85.867
  C        9.035     303.993     -84.935
  O        8.607     302.884     -85.242
  N        9.069     304.399     -83.627
  C        9.399     305.647     -83.185
  O        9.204     306.032     -82.036
  C        9.917     306.568     -84.206
  C        9.913     306.178     -85.485
  O       10.619     309.737     -92.190
  O       11.878     309.614     -89.965
  H       12.025     310.546     -90.211
  H        8.248     304.063     -89.671
  H        8.714     303.744     -82.944
  H       10.250     307.549     -83.889
  H       10.265     306.855     -86.258
  H        9.464     303.429     -87.313
  H        7.269     305.210     -87.286
  H        8.673     307.070     -87.949
  H        9.895     305.134     -89.997
  H       11.038     307.605     -88.626
  H       11.884     306.571     -89.808
  P        6.439     307.476     -89.584
  C        7.510     309.612     -90.516
  O        6.804     309.030     -89.432
  O        5.535     306.943     -88.524
  O        5.729     307.417     -91.021
  H        4.818     307.076     -90.913
  H        7.698     310.644     -90.306
  H        6.925     309.530     -91.408
  H        8.440     309.100     -90.652

 6  7  8  9  10  11  12  13  14  15  16  27  31  32  33  34  35 0
 6-311+G(2d,p)
 ****
 36  37 0
 6-311+G(2d,p)
 ****
 1  2  3  4  5  17  18  19  20  21  22  23  24  25 0
 3-21G
 ****
 26  28  29  30  38  39  40  41  42  43  44  45 0
 3-21G
 ****


