%nproc=1
%NoSave
%Mem=1900MB
#P OB98/GEN NMR

erre ene a

0 1
  C       33.328     802.800    -179.484
  O       34.106     801.659    -179.164
  P       35.299     801.844    -178.108
  C       33.551     801.648    -176.213
  O       34.633     802.396    -176.749
  C       34.012     800.784    -175.039
  O       34.637     801.639    -174.038
  C       32.893     799.993    -174.347
  O       33.348     798.661    -174.081
  C       32.733     800.706    -173.014
  O       32.200     799.845    -172.013
  C       34.175     801.154    -172.762
  N       36.294     802.168    -168.284
  C       36.554     801.132    -169.175
  N       37.466     800.208    -168.777
  N       35.970     801.008    -170.337
  C       35.112     802.018    -170.609
  C       34.776     803.098    -169.816
  C       35.388     803.184    -168.508
  O       35.133     804.023    -167.642
  N       33.876     803.928    -170.453
  C       33.648     803.340    -171.615
  N       34.341     802.159    -171.744
  O       36.094     803.120    -178.687
  O       36.211     800.669    -177.953
  H       32.718     799.018    -172.044
  H       37.025     802.886    -178.836
  H       36.766     802.207    -167.398
  H       32.994     803.723    -172.379
  H       34.796     800.287    -172.485
  H       32.063     801.562    -173.142
  H       37.979     800.269    -167.914
  H       31.959     799.967    -174.919
  H       37.685     799.469    -169.417
  H       34.806     800.103    -175.404
  H       33.128     801.000    -176.996
  H       32.771     802.344    -175.874
  P       32.213     797.519    -174.058
  C       32.318     797.017    -176.618
  O       31.570     797.517    -175.526
  O       31.064     798.150    -173.142
  O       32.697     796.198    -173.551
  H       30.517     797.458    -172.737
  H       33.236     796.506    -176.275
  H       32.595     797.834    -177.282
  H       31.715     796.287    -177.176
  H       32.575     802.530    -180.195
  H       33.959     803.556    -179.902
  H       32.862     803.175    -178.596

 3  4  5  6  7  8  9  10  11  12  23  26  30  31  33  0
 6-311+G(2d,p)
 ****
 35  36  37  38 0
 6-311+G(2d,p)
 ****
 1  2  13  14  15  16  17  18  19  20  21  22  24  25  27  28  29 0
 3-21G
 ****
 32  34  39  40  41  42  43  44  45  46  47  48  49 0
 3-21G
 ****


