%nproc=1
%NoSave
%Mem=1900MB
#P OB98/GEN NMR

erre ene a

0 1
  C     -107.455     110.351      -4.492
  O     -106.491     110.855      -3.582
  P     -106.479     110.389      -2.045
  C     -107.943     110.948       0.012
  O     -107.628     111.257      -1.340
  C     -108.321     112.223       0.761
  O     -107.164     113.073       0.884
  C     -109.386     113.068       0.072
  O     -110.677     112.505       0.244
  C     -109.162     114.418       0.745
  O     -109.782     114.438       2.041
  C     -107.627     114.444       0.899
  N     -106.966     115.235      -0.135
  C     -106.985     116.622       0.034
  O     -107.525     117.136       1.013
  N     -106.355     117.408      -0.901
  C     -105.778     116.859      -1.926
  N     -105.112     117.681      -2.783
  C     -105.784     115.405      -2.172
  C     -106.384     114.662      -1.243
  O     -105.147     110.460      -1.379
  O     -107.115     108.924      -2.064
  H     -110.702     114.132       1.917
  H     -106.450     108.206      -2.207
  H     -105.300     114.996      -3.048
  H     -106.413     113.584      -1.339
  H     -107.351     114.847       1.882
  H     -109.557     115.264       0.171
  H     -109.172     113.153      -1.001
  H     -108.650     111.943       1.771
  H     -104.985     118.641      -2.485
  H     -107.059     110.504       0.483
  H     -104.414     117.321      -3.424
  H     -108.760     110.219       0.035
  P     -111.798     112.875      -0.841
  C     -112.530     115.123      -1.908
  O     -111.941     114.475      -0.796
  O     -113.147     112.333      -0.175
  O     -111.561     112.292      -2.195
  H     -113.405     111.481      -0.574
  H     -112.767     116.151      -1.623
  H     -113.451     114.618      -2.209
  H     -111.825     115.144      -2.743
  H     -107.293     110.782      -5.458
  H     -108.436     110.604      -4.148
  H     -107.363     109.287      -4.556

 3  4  5  6  7  8  9  10  11  12  13  23  27  28  29  30  32 0
 6-311+G(2d,p)
 ****
 34  35 0
 6-311+G(2d,p)
 ****
 1  2  14  15  16  17  18  19  20  21  22  24  25  26 0
 3-21G
 ****
 31  33  36  37  38  39  40  41  42  43  44  45  46 0
 3-21G
 ****


