%nproc=1
%NoSave
%Mem=1900MB
#P OB98/GEN NMR

erre ene a

0 1
  C     -197.484      -3.330      -8.796
  O     -197.643      -4.337      -7.814
  H     -196.702      -2.641      -8.468
  H     -198.416      -2.775      -8.919
  H     -197.185      -3.778      -9.747
  P     -198.736      -5.470      -8.122
  C     -196.866      -6.811      -9.305
  O     -198.160      -6.234      -9.409
  C     -196.714      -7.962     -10.296
  O     -195.367      -8.467     -10.284
  C     -197.608      -9.161     -10.008
  O     -198.923      -8.939     -10.491
  C     -196.893     -10.245     -10.799
  O     -197.236     -10.137     -12.194
  C     -195.410      -9.885     -10.595
  N     -191.036     -12.178      -9.196
  C     -191.448     -11.676     -10.380
  N     -192.638     -11.121     -10.689
  C     -193.452     -11.108      -9.621
  C     -193.170     -11.584      -8.350
  C     -191.891     -12.131      -8.148
  N     -191.472     -12.632      -6.935
  N     -194.249     -11.404      -7.510
  C     -195.145     -10.782      -8.248
  N     -194.725     -10.613      -9.543
  O     -200.147      -5.001      -8.205
  O     -198.435      -6.512      -6.943
  H     -196.943      -9.259     -12.501
  H     -197.477      -6.579      -6.783
  H     -190.723     -11.726     -11.187
  H     -196.103     -10.421      -7.892
  H     -194.826     -10.039     -11.510
  H     -197.177     -11.250     -10.478
  H     -197.595      -9.425      -8.946
  H     -196.903      -7.566     -11.302
  H     -196.689      -7.172      -8.286
  H     -190.612     -13.158      -6.922
  H     -192.152     -12.710      -6.193
  H     -196.137      -6.025      -9.525
  P     -199.975     -10.146     -10.582
  C     -200.006      -9.921      -8.022
  O     -200.025     -10.818      -9.125
  O     -199.741     -11.103     -11.698
  O     -201.398      -9.430     -10.700
  H     -201.976      -9.923     -11.313
  H     -200.043     -10.478      -7.109
  H     -200.853      -9.270      -8.077
  H     -199.108      -9.340      -8.050

 6  7  8  9  10  11  12  13  14  15  25  28  32  33  34  35 0
 6-311+G(2d,p)
 ****
 36  39  40 0
 6-311+G(2d,p)
 ****
 1  2  3  4  5  16  17  18  19  20  21  22  23  24 0
 3-21G
 ****
 26  27  29  30  31  37  38  41  42  43  44  45  46  47 0
 3-21G
 ****
 48 0
 3-21G
 ****


