%nproc=1
%NoSave
%Mem=1900MB
#P OB98/GEN NMR

erre ene a

0 1
  C      -10.540      61.904      32.914
  O      -10.105      62.940      33.770
  H      -11.537      62.154      32.543
  H      -10.596      60.954      33.453
  H       -9.865      61.809      32.059
  P       -8.709      62.755      34.541
  C       -6.274      62.471      33.702
  O       -7.653      62.429      33.372
  C       -5.487      61.517      32.807
  O       -5.994      60.171      32.913
  C       -5.550      61.838      31.317
  O       -4.765      62.960      30.947
  C       -5.012      60.537      30.744
  O       -3.583      60.492      30.912
  C       -5.709      59.497      31.654
  N       -6.938      58.962      31.072
  C       -6.817      58.316      29.835
  O       -5.720      58.216      29.286
  N       -7.949      57.829      29.228
  C       -9.103      57.990      29.795
  N      -10.199      57.530      29.129
  C       -9.276      58.648      31.104
  C       -8.166      59.110      31.678
  O       -8.709      61.797      35.688
  O       -8.283      64.241      34.953
  H       -3.277      59.654      30.520
  H       -7.427      64.180      35.445
  H      -10.262      58.764      31.529
  H       -8.214      59.621      32.633
  H       -5.034      58.664      31.881
  H       -5.217      60.417      29.677
  H       -6.587      61.962      30.987
  H       -4.452      61.500      33.171
  H      -10.047      57.124      28.216
  H       -6.167      62.198      34.756
  H      -11.132      57.857      29.360
  H       -5.882      63.482      33.556
  P       -5.258      63.844      29.700
  C       -7.581      64.757      28.950
  O       -6.863      63.801      29.713
  O       -4.865      62.938      28.444
  O       -4.685      65.223      29.617
  H       -3.990      63.189      28.089
  H       -8.631      64.591      29.067
  H       -7.318      64.660      27.917
  H       -7.336      65.742      29.290

 6  7  8  9  10  11  12  13  14  15  16  26  30  31  32  33  35 0
 6-311+G(2d,p)
 ****
 37  38 0
 6-311+G(2d,p)
 ****
 1  2  3  4  5  17  18  19  20  21  22  23  24  25 0
 3-21G
 ****
 27  28  29  34  36  39  40  41  42  43  44  45  46 0
 3-21G
 ****


