%nproc=1
%NoSave
%Mem=1900MB
#P OB98/GEN NMR

erre ene a

0 1
  C      240.960      59.669    -103.156
  O      240.953      61.089    -102.955
  P      240.747      61.775    -101.515
  C      238.389      60.735    -101.450
  O      239.577      61.007    -100.726
  C      237.130      61.070    -100.635
  O      237.066      60.231     -99.438
  C      237.047      62.539    -100.168
  O      235.671      62.925    -100.272
  C      237.488      62.434     -98.712
  O      237.114      63.547     -97.923
  C      236.797      61.116     -98.328
  N      237.240      60.517     -97.070
  C      236.346      60.535     -95.989
  O      235.247      61.081     -96.072
  N      236.732      59.941     -94.808
  C      237.902      59.385     -94.710
  N      238.214      58.802     -93.517
  C      238.881      59.361     -95.814
  C      238.487      59.937     -96.950
  O      240.542      63.255    -101.581
  O      242.071      61.425    -100.680
  H      242.295      62.181    -100.102
  H      236.140      63.601     -97.917
  H      239.840      58.883     -95.692
  H      239.139      59.938     -97.820
  H      235.710      61.273     -98.296
  H      238.579      62.348     -98.682
  H      237.653      63.226    -100.766
  H      236.250      60.814    -101.240
  H      237.509      58.833     -92.784
  H      238.368      59.666    -101.698
  H      239.092      58.338     -93.332
  H      238.397      61.307    -102.388
  P      235.153      63.660    -101.604
  C      235.037      65.956    -100.364
  O      235.519      65.216    -101.474
  O      233.562      63.680    -101.371
  O      235.476      62.988    -102.902
  H      233.111      63.722    -102.236
  H      235.850      66.577     -99.975
  H      234.670      65.310     -99.561
  H      234.224      66.612    -100.703
  H      241.113      59.456    -104.193
  H      240.022      59.260    -102.843
  H      241.750      59.231    -102.582

 3  4  5  6  7  8  9  10  11  12  13  24  27  28  29  30  32 0
 6-311+G(2d,p)
 ****
 34  35 0
 6-311+G(2d,p)
 ****
 1  2  14  15  16  17  18  19  20  21  22  23  25  26 0
 3-21G
 ****
 31  33  36  37  38  39  40  41  42  43  44  45  46 0
 3-21G
 ****


