%nproc=1
%NoSave
%Mem=1900MB
#P OB98/GEN NMR

erre ene a

0 1
  C      447.624    -149.846    -121.297
  O      447.844    -148.891    -120.279
  H      447.109    -150.712    -120.866
  H      448.577    -150.178    -121.720
  H      446.997    -149.420    -122.085
  P      448.682    -147.582    -120.681
  C      451.124    -148.443    -120.417
  O      450.066    -148.090    -121.308
  C      452.462    -148.038    -121.029
  O      452.707    -148.811    -122.231
  C      452.531    -146.577    -121.467
  O      452.758    -145.690    -120.385
  C      453.705    -146.624    -122.434
  O      454.960    -146.509    -121.749
  C      453.547    -148.010    -123.089
  N      453.011    -147.914    -124.446
  C      453.927    -147.538    -125.427
  O      455.110    -147.298    -125.194
  N      453.417    -147.401    -126.691
  C      452.113    -147.556    -127.051
  O      451.709    -147.365    -128.194
  C      451.185    -147.932    -125.968
  C      451.671    -148.091    -124.727
  O      449.105    -146.972    -119.260
  O      447.940    -146.593    -121.515
  H      448.575    -146.174    -119.075
  H      455.650    -146.695    -122.417
  H      454.065    -147.138    -127.422
  H      450.141    -148.063    -126.220
  H      451.013    -148.362    -123.917
  H      454.519    -148.520    -123.139
  H      453.652    -145.808    -123.150
  H      451.621    -146.308    -122.021
  H      453.259    -148.258    -120.306
  H      451.118    -149.527    -120.254
  H      450.964    -147.944    -119.460
  P      451.805    -144.402    -120.266
  C      453.714    -142.774    -121.065
  O      452.412    -143.315    -121.272
  O      452.203    -143.878    -118.803
  O      450.355    -144.725    -120.454
  H      453.113    -144.135    -118.562
  H      453.935    -142.069    -121.839
  H      454.436    -143.564    -121.085
  H      453.749    -142.283    -120.115

 6  7  8  9  10  11  12  13  14  15  16  27  31  32  33  34  35 0
 6-311+G(2d,p)
 ****
 36  37 0
 6-311+G(2d,p)
 ****
 1  2  3  4  5  17  18  19  20  21  22  23  24  25 0
 3-21G
 ****
 26  28  29  30  38  39  40  41  42  43  44  45 0
 3-21G
 ****


