%nproc=1
%NoSave
%Mem=1900MB
#P OB98/GEN NMR

erre ene a

0 1
  C      167.113    -231.472     111.465
  O      167.565    -230.424     112.331
  P      168.863    -229.537     112.020
  C      169.599    -229.411     114.492
  O      169.245    -228.682     113.320
  C      169.821    -228.483     115.688
  O      170.973    -227.637     115.475
  C      168.667    -227.531     115.982
  O      167.592    -228.209     116.614
  C      169.364    -226.486     116.853
  O      169.453    -226.923     118.219
  C      170.762    -226.412     116.208
  N      170.921    -225.242     115.352
  C      171.139    -224.025     115.995
  O      171.128    -223.958     117.229
  N      171.336    -222.897     115.229
  C      171.248    -222.975     113.939
  N      171.457    -221.834     113.230
  C      170.931    -224.229     113.221
  C      170.784    -225.308     113.983
  O      168.762    -228.728     110.766
  O      170.068    -230.590     111.906
  H      168.545    -226.910     118.576
  H      170.730    -230.248     111.274
  H      170.839    -224.242     112.143
  H      170.559    -226.272     113.540
  H      171.538    -226.386     116.982
  H      168.834    -225.527     116.859
  H      168.330    -227.058     115.051
  H      170.028    -229.112     116.569
  H      171.679    -220.995     113.749
  H      170.530    -229.959     114.285
  H      171.415    -221.786     112.221
  H      168.805    -230.132     114.712
  P      166.415    -228.828     115.722
  C      164.270    -228.270     117.017
  O      165.237    -229.263     116.718
  O      166.829    -229.874     114.742
  O      165.794    -227.556     114.970
  H      165.456    -227.835     114.100
  H      163.349    -228.766     117.340
  H      164.055    -227.654     116.142
  H      164.639    -227.637     117.832
  H      166.233    -231.921     111.877
  H      167.880    -232.212     111.370
  H      166.888    -231.066     110.501

 3  4  5  6  7  8  9  10  11  12  13  23  27  28  29  30  32 0
 6-311+G(2d,p)
 ****
 34  35 0
 6-311+G(2d,p)
 ****
 1  2  14  15  16  17  18  19  20  21  22  24  25  26 0
 3-21G
 ****
 31  33  36  37  38  39  40  41  42  43  44  45  46 0
 3-21G
 ****


