%nproc=1
%NoSave
%Mem=1900MB
#P OB98/GEN NMR

erre ene a

0 1
  C      159.751      15.805    -135.046
  O      160.383      14.852    -134.216
  H      158.865      16.185    -134.526
  H      159.436      15.349    -135.987
  H      160.423      16.646    -135.243
  P      161.680      14.090    -134.771
  C      164.069      13.817    -133.829
  O      162.680      13.910    -133.527
  C      164.867      13.507    -132.557
  O      164.894      14.710    -131.749
  C      164.233      12.381    -131.724
  O      165.148      11.331    -131.409
  C      163.586      13.127    -130.561
  O      163.440      12.365    -129.381
  C      164.469      14.372    -130.414
  N      163.794      15.504    -129.784
  C      163.596      15.443    -128.407
  O      163.963      14.522    -127.677
  N      162.941      16.517    -127.857
  C      162.477      17.607    -128.528
  O      161.903      18.543    -127.979
  C      162.698      17.607    -129.983
  C      163.336      16.570    -130.536
  O      162.301      14.677    -135.994
  O      161.166      12.595    -135.035
  H      163.280      12.987    -128.641
  H      161.018      12.465    -135.991
  H      162.801      16.490    -126.858
  H      162.333      18.451    -130.549
  H      163.517      16.536    -131.607
  H      165.357      14.143    -129.822
  H      162.580      13.436    -130.871
  H      163.450      11.866    -132.294
  H      165.901      13.272    -132.835
  H      164.387      14.775    -134.254
  H      164.232      13.026    -134.570
  P      165.229       9.934    -132.175
  C      167.156       8.587    -133.338
  O      166.773       9.569    -132.386
  O      164.332       9.795    -133.359
  O      164.737       8.872    -131.062
  H      164.274       8.157    -131.544
  H      168.221       8.483    -133.334
  H      166.830       8.888    -134.312
  H      166.705       7.650    -133.085

 6  7  8  9  10  11  12  13  14  15  16  26  31  32  33  34  35 0
 6-311+G(2d,p)
 ****
 36  37 0
 6-311+G(2d,p)
 ****
 1  2  3  4  5  17  18  19  20  21  22  23  24  25 0
 3-21G
 ****
 27  28  29  30  38  39  40  41  42  43  44  45 0
 3-21G
 ****


