%nproc=1
%NoSave
%Mem=1900MB
#P OB98/GEN NMR

erre ene a

0 1
  C       20.320     249.124     313.559
  O       20.445     248.278     314.705
  P       19.295     248.422     315.817
  C       20.546     250.123     317.316
  O       19.427     249.882     316.477
  C       20.269     251.259     318.308
  O       21.316     251.340     319.320
  C       20.168     252.641     317.651
  O       19.190     253.385     318.392
  C       21.543     253.236     317.916
  O       21.539     254.649     317.773
  C       21.789     252.707     319.328
  N       25.521     255.812     320.707
  C       24.248     256.097     320.259
  N       23.899     257.401     320.220
  N       23.388     255.187     319.882
  C       23.865     253.919     320.014
  C       25.098     253.510     320.464
  C       26.050     254.533     320.842
  O       27.188     254.336     321.253
  N       25.193     252.137     320.479
  C       24.039     251.733     319.980
  N       23.181     252.767     319.736
  O       19.778     247.430     316.973
  O       17.929     248.072     315.316
  H       22.430     254.974     318.028
  H       19.287     246.587     316.922
  H       26.148     256.557     320.968
  H       23.765     250.707     319.803
  H       21.222     253.264     320.082
  H       22.273     252.822     317.210
  H       24.490     258.154     320.538
  H       19.913     252.624     316.590
  H       22.958     257.636     319.931
  H       19.332     251.030     318.833
  H       21.416     250.391     316.709
  H       20.811     249.197     317.838
  P       17.749     253.583     317.731
  C       18.121     256.029     316.964
  O       17.900     254.687     316.581
  O       16.929     254.352     318.875
  O       17.061     252.319     317.334
  H       16.010     254.020     318.897
  H       18.654     256.544     316.156
  H       18.720     256.098     317.877
  H       17.164     256.527     317.131
  H       21.136     248.943     312.891
  H       20.333     250.148     313.869
  H       19.397     248.914     313.060

 3  4  5  6  7  8  9  10  11  12  23  26  30  31 0
 6-311+G(2d,p)
 ****
 33  35  36  37  38 0
 6-311+G(2d,p)
 ****
 1  2  13  14  15  16  17  18  19  20  21  22  24  25 0
 3-21G
 ****
 27  28  29  32  34  39  40  41  42  43  44  45  46  47  48  49 0
 3-21G
 ****


