%nproc=1
%NoSave
%Mem=1900MB
#P OB98/GEN NMR

erre ene a

0 1
  C      159.708      40.036    -148.233
  O      158.775      38.954    -148.269
  P      159.377      37.493    -148.544
  C      159.997      35.711    -146.758
  O      160.191      37.033    -147.242
  C      160.739      35.519    -145.436
  O      162.163      35.706    -145.589
  C      160.321      36.510    -144.355
  O      159.055      36.169    -143.816
  C      161.483      36.381    -143.380
  O      161.329      35.205    -142.568
  C      162.680      36.200    -144.329
  N      165.648      39.757    -142.159
  C      165.059      38.648    -141.662
  N      164.279      37.752    -142.305
  C      164.144      38.085    -143.599
  C      164.685      39.184    -144.248
  C      165.470      40.050    -143.471
  N      166.055      41.189    -143.973
  N      164.318      39.193    -145.581
  C      163.548      38.132    -145.724
  N      163.422      37.426    -144.558
  O      160.519      37.763    -149.633
  O      158.364      36.510    -149.037
  H      161.532      34.431    -143.133
  H      160.240      37.417    -150.501
  H      165.233      38.455    -140.607
  H      163.062      37.841    -146.648
  H      163.396      35.455    -143.958
  H      161.573      37.235    -142.703
  H      160.288      37.528    -144.768
  H      160.559      34.493    -145.090
  H      160.352      34.982    -147.491
  H      166.537      41.798    -143.329
  H      165.859      41.463    -144.925
  H      158.922      35.534    -146.636
  P      157.771      36.967    -144.357
  C      156.077      36.396    -146.206
  O      157.396      36.198    -145.720
  O      158.434      38.319    -144.888
  O      156.664      37.121    -143.373
  H      159.236      38.149    -145.414
  H      155.970      35.851    -147.147
  H      155.897      37.459    -146.385
  H      155.355      36.011    -145.486
  H      159.186      40.951    -148.043
  H      160.214      40.102    -149.174
  H      160.423      39.865    -147.455

 3  4  5  6  7  8  9  10  11  12  22  25  29  30  31  32 0
 6-311+G(2d,p)
 ****
 33  36  37 0
 6-311+G(2d,p)
 ****
 1  2  13  14  15  16  17  18  19  20  21  23  24  26 0
 3-21G
 ****
 27  28  34  35  38  39  40  41  42  43  44  45  46  47  48 0
 3-21G
 ****


