%nproc=1
%NoSave
%Mem=1900MB
#P OB98/GEN NMR

erre ene a

0 1
  C       74.915    -339.410    -131.641
  O       75.469    -340.261    -130.660
  H       74.751    -338.423    -131.200
  H       73.954    -339.806    -131.984
  H       75.598    -339.308    -132.490
  P       75.898    -341.732    -131.131
  C       73.561    -342.829    -130.768
  O       74.563    -342.433    -131.691
  C       72.625    -343.846    -131.420
  O       71.702    -344.339    -130.413
  C       71.786    -343.257    -132.563
  O       71.632    -344.240    -133.587
  C       70.442    -342.984    -131.903
  O       69.356    -342.931    -132.814
  C       70.362    -344.155    -130.915
  N       69.427    -343.903    -129.822
  C       68.349    -344.771    -129.689
  O       68.166    -345.776    -130.374
  N       67.447    -344.446    -128.708
  C       67.506    -343.360    -127.887
  O       66.655    -343.107    -127.040
  C       68.662    -342.473    -128.086
  C       69.556    -342.781    -129.029
  O       76.157    -342.503    -129.749
  O       77.066    -341.805    -132.053
  H       77.093    -342.412    -129.479
  H       69.602    -342.325    -133.543
  H       66.657    -345.065    -128.594
  H       68.734    -341.594    -127.457
  H       70.413    -342.144    -129.206
  H       70.079    -345.074    -131.443
  H       70.478    -342.030    -131.363
  H       72.222    -342.347    -132.983
  H       73.216    -344.707    -131.768
  H       72.985    -341.949    -130.468
  H       74.037    -343.265    -129.881
  P       72.610    -344.141    -134.858
  C       70.890    -342.859    -136.352
  O       72.138    -342.845    -135.677
  O       72.110    -345.376    -135.741
  O       74.058    -344.175    -134.480
  H       71.147    -345.516    -135.702
  H       70.739    -341.920    -136.841
  H       70.104    -343.023    -135.645
  H       70.886    -343.644    -137.079

 6  7  8  9  10  11  12  13  14  15  16  27  31  32  33  34  35 0
 6-311+G(2d,p)
 ****
 36  37 0
 6-311+G(2d,p)
 ****
 1  2  3  4  5  17  18  19  20  21  22  23  24  25 0
 3-21G
 ****
 26  28  29  30  38  39  40  41  42  43  44  45 0
 3-21G
 ****


