%nproc=1
%NoSave
%Mem=1900MB
#P OB98/GEN NMR

erre ene a

0 1
  C      389.612    -278.715     -82.124
  O      389.778    -280.053     -81.706
  P      389.972    -281.275     -82.708
  C      388.423    -282.931     -84.011
  O      388.524    -281.780     -83.183
  C      387.256    -283.823     -83.571
  O      387.522    -284.308     -82.230
  C      385.933    -283.036     -83.510
  O      384.808    -283.743     -84.015
  C      385.879    -282.589     -82.051
  O      384.571    -282.233     -81.613
  C      386.523    -283.773     -81.338
  N      385.897    -283.315     -76.315
  C      385.061    -283.901     -77.243
  N      383.830    -284.242     -76.808
  N      385.399    -284.098     -78.494
  C      386.613    -283.600     -78.815
  C      387.533    -283.000     -77.979
  C      387.162    -282.825     -76.592
  O      387.827    -282.206     -75.757
  N      388.635    -282.563     -78.665
  C      388.372    -282.865     -79.920
  N      387.142    -283.465     -80.066
  O      390.980    -282.308     -82.317
  O      390.520    -280.529     -84.032
  H      384.655    -281.823     -80.736
  H      391.150    -281.144     -84.467
  H      385.555    -283.119     -75.382
  H      389.020    -282.645     -80.764
  H      385.795    -284.562     -81.137
  H      386.497    -281.691     -81.960
  H      383.494    -283.969     -75.889
  H      385.987    -282.147     -84.147
  H      383.126    -284.437     -77.510
  H      387.190    -284.693     -84.240
  H      389.370    -283.469     -83.906
  H      388.316    -282.640     -85.061
  P      383.617    -283.204     -84.929
  C      381.093    -282.983     -84.534
  O      382.381    -282.813     -83.984
  O      383.073    -284.491     -85.708
  O      384.007    -282.139     -85.904
  H      382.849    -284.247     -86.625
  H      380.368    -282.438     -83.920
  H      380.827    -284.043     -84.534
  H      381.050    -282.592     -85.557
  H      389.501    -278.085     -81.267
  H      388.739    -278.639     -82.738
  H      390.470    -278.407     -82.685

 3  4  5  6  7  8  9  10  11  12  23  26  30  31 0
 6-311+G(2d,p)
 ****
 33  35  36  37  38 0
 6-311+G(2d,p)
 ****
 1  2  13  14  15  16  17  18  19  20  21  22  24  25 0
 3-21G
 ****
 27  28  29  32  34  39  40  41  42  43  44  45  46  47  48  49 0
 3-21G
 ****


