%nproc=1
%NoSave
%Mem=1900MB
#P OB98/GEN NMR

erre ene a

0 1
  C      184.521    -214.563    -213.958
  O      183.671    -214.052    -214.956
  P      183.925    -212.677    -215.722
  C      182.586    -210.977    -214.253
  O      182.670    -211.713    -215.470
  C      181.127    -210.615    -213.927
  O      180.625    -209.744    -214.977
  C      180.222    -211.865    -213.918
  O      179.272    -211.880    -212.861
  C      179.685    -211.907    -215.341
  O      178.502    -212.682    -215.478
  C      179.558    -210.422    -215.667
  N      177.248    -210.601    -220.196
  C      176.718    -210.832    -218.941
  N      175.470    -211.348    -218.909
  N      177.376    -210.604    -217.832
  C      178.650    -210.202    -218.025
  C      179.284    -209.938    -219.222
  C      178.537    -210.154    -220.438
  O      179.004    -210.078    -221.575
  N      180.603    -209.606    -219.038
  C      180.780    -209.705    -217.735
  N      179.627    -210.093    -217.083
  O      184.475    -212.771    -217.110
  O      185.064    -211.995    -214.797
  H      177.844    -212.324    -214.851
  H      185.650    -211.484    -215.389
  H      176.722    -210.870    -221.020
  H      181.715    -209.537    -217.217
  H      178.611    -210.015    -215.315
  H      180.452    -212.383    -215.968
  H      175.000    -211.667    -219.746
  H      180.820    -212.763    -213.735
  H      175.159    -211.750    -218.026
  H      181.091    -210.059    -212.986
  H      183.176    -210.067    -214.402
  H      183.036    -211.538    -213.428
  P      178.778    -213.115    -211.976
  C      176.296    -213.009    -212.616
  O      177.244    -212.878    -211.578
  O      179.542    -212.946    -210.577
  O      179.068    -214.454    -212.562
  H      179.815    -213.827    -210.249
  H      175.349    -212.563    -212.290
  H      176.129    -214.070    -212.829
  H      176.638    -212.503    -213.528
  H      184.133    -215.495    -213.602
  H      184.578    -213.867    -213.147
  H      185.498    -214.716    -214.366

 3  4  5  6  7  8  9  10  11  12  23  26  30  31 0
 6-311+G(2d,p)
 ****
 33  35  36  37  38 0
 6-311+G(2d,p)
 ****
 1  2  13  14  15  16  17  18  19  20  21  22  24  25 0
 3-21G
 ****
 27  28  29  32  34  39  40  41  42  43  44  45  46  47  48  49 0
 3-21G
 ****


