%nproc=1
%NoSave
%Mem=1900MB
#P OB98/GEN NMR

erre ene a

0 1
  C      179.040    -128.820    -447.734
  O      180.144    -128.043    -447.250
  P      179.811    -126.552    -446.729
  C      181.393    -125.082    -448.166
  O      181.131    -125.650    -446.891
  C      182.898    -125.093    -448.502
  O      183.471    -123.771    -448.332
  C      183.708    -126.075    -447.639
  O      184.758    -126.580    -448.457
  C      184.301    -125.159    -446.573
  O      185.442    -125.757    -445.969
  C      184.580    -123.887    -447.412
  N      184.739    -122.696    -446.587
  C      185.614    -121.710    -447.048
  O      186.285    -121.896    -448.080
  N      185.761    -120.548    -446.327
  C      185.123    -120.404    -445.205
  N      185.300    -119.245    -444.531
  C      184.223    -121.447    -444.651
  C      184.077    -122.534    -445.383
  O      179.663    -126.736    -445.145
  O      178.565    -125.980    -447.333
  H      186.087    -125.996    -446.677
  H      178.838    -126.322    -444.836
  H      183.723    -121.296    -443.692
  H      183.442    -123.355    -445.055
  H      185.497    -124.015    -448.001
  H      183.563    -124.947    -445.789
  H      183.110    -126.887    -447.235
  H      182.996    -125.368    -449.551
  H      185.917    -118.548    -444.939
  H      181.027    -124.053    -448.186
  H      184.861    -119.027    -443.647
  H      180.820    -125.626    -448.919
  P      184.650    -128.089    -448.973
  C      187.209    -128.333    -448.781
  O      186.070    -128.403    -449.653
  O      183.733    -127.904    -450.297
  O      184.095    -129.127    -448.055
  H      183.522    -128.778    -450.668
  H      188.081    -128.680    -449.336
  H      187.056    -128.978    -447.917
  H      187.382    -127.291    -448.476
  H      179.391    -129.781    -448.047
  H      178.587    -128.318    -448.563
  H      178.319    -128.941    -446.953

 3  4  5  6  7  8  9  10  11  12  13  21  23  27  28  29  30  32 0
 6-311+G(2d,p)
 ****
 34  35 0
 6-311+G(2d,p)
 ****
 1  2  14  15  16  17  18  19  20  22  24  25  26 0
 3-21G
 ****
 31  33  36  37  38  39  40  41  42  43  44  45  46 0
 3-21G
 ****


