%nproc=1
%NoSave
%Mem=1900MB
#P OB98/GEN NMR

erre ene a

0 1
  C      169.766     635.806     374.721
  O      170.065     634.980     373.616
  H      169.193     635.233     375.449
  H      169.157     636.654     374.388
  H      170.682     636.171     375.196
  P      171.218     635.476     372.616
  C      169.447     636.494     371.013
  O      170.611     636.719     371.794
  C      169.167     637.706     370.114
  O      168.750     638.819     370.954
  C      170.382     638.163     369.288
  O      169.927     638.618     368.006
  C      170.875     639.381     370.066
  O      171.631     640.270     369.256
  C      169.548     639.957     370.561
  N      168.672     644.673     372.027
  C      168.182     643.960     370.955
  N      167.362     644.622     370.102
  N      168.459     642.700     370.737
  C      169.264     642.155     371.676
  C      169.826     642.753     372.779
  C      169.520     644.151     373.004
  O      169.953     644.841     373.928
  N      170.637     641.876     373.455
  C      170.585     640.760     372.748
  N      169.761     640.885     371.658
  O      171.271     634.299     371.534
  O      172.553     635.720     373.244
  H      171.064     640.565     368.510
  H      171.967     633.659     371.776
  H      168.437     645.646     372.145
  H      171.133     639.853     372.966
  H      169.009     640.498     369.778
  H      171.506     639.052     370.908
  H      167.076     645.579     370.221
  H      171.152     637.402     369.158
  H      166.963     644.095     369.341
  H      168.322     637.459     369.456
  H      168.586     636.337     371.676
  H      169.585     635.593     370.408
  P      169.899     637.559     366.806
  C      171.978     638.345     365.445
  O      171.395     637.348     366.274
  O      169.201     638.376     365.613
  O      169.143     636.308     367.118
  H      168.656     637.775     365.074
  H      172.972     638.052     365.180
  H      172.010     639.275     365.974
  H      171.391     638.459     364.558

 6  7  8  9  10  11  12  13  14  15  26  29  33  34 0
 6-311+G(2d,p)
 ****
 36  38  39  40  41 0
 6-311+G(2d,p)
 ****
 1  2  3  4  5  16  17  18  19  20  21  22  23  24  25 0
 3-21G
 ****
 27  28  30  31  32  35  37  42  43  44  45  46  47 0
 3-21G
 ****
 48  49 0
 3-21G
 ****


