%nproc=1
%NoSave
%Mem=1900MB
#P OB98/GEN NMR

erre ene a

0 1
  C     -420.617    -650.958     722.612
  O     -420.305    -652.223     723.136
  H     -419.831    -650.656     721.922
  H     -420.674    -650.216     723.410
  H     -421.569    -650.993     722.064
  P     -421.315    -652.893     724.193
  C     -422.541    -654.626     722.690
  O     -421.507    -654.406     723.655
  C     -422.157    -655.773     721.765
  O     -421.055    -655.402     720.897
  C     -421.673    -657.044     722.472
  O     -422.714    -657.778     723.091
  C     -421.061    -657.782     721.298
  O     -422.099    -658.349     720.477
  C     -420.343    -656.619     720.554
  N     -418.911    -656.510     720.931
  C     -418.033    -657.360     720.266
  O     -418.435    -658.160     719.428
  N     -416.691    -657.309     720.607
  C     -416.295    -656.504     721.552
  N     -414.965    -656.498     721.827
  C     -417.203    -655.597     722.276
  C     -418.486    -655.653     721.926
  O     -422.581    -652.137     724.456
  O     -420.426    -653.142     725.503
  H     -421.673    -658.958     719.850
  H     -421.011    -653.544     726.191
  H     -416.824    -654.969     723.069
  H     -419.218    -655.020     722.423
  H     -420.402    -656.751     719.480
  H     -420.402    -658.597     721.590
  H     -420.867    -656.806     723.183
  H     -423.018    -655.979     721.110
  H     -414.369    -657.118     721.314
  H     -422.700    -653.694     722.133
  H     -414.573    -655.951     722.611
  H     -423.473    -654.893     723.211
  P     -422.401    -658.358     724.559
  C     -424.005    -656.610     725.652
  O     -423.656    -657.974     725.482
  O     -421.226    -657.410     725.099
  O     -422.017    -659.814     724.608
  H     -420.342    -657.840     724.979
  H     -424.859    -656.537     726.293
  H     -424.236    -656.180     724.700
  H     -423.183    -656.084     726.091

 6  7  8  9  10  11  12  13  14  15  16  26  30  31  32  33  35 0
 6-311+G(2d,p)
 ****
 37  38 0
 6-311+G(2d,p)
 ****
 1  2  3  4  5  17  18  19  20  21  22  23  24  25 0
 3-21G
 ****
 27  28  29  34  36  39  40  41  42  43  44  45  46 0
 3-21G
 ****


