%nproc=1
%NoSave
%Mem=1900MB
#P OB98/GEN NMR

erre ene a

0 1
  C      188.616    -120.824      46.344
  O      189.779    -121.627      46.193
  P      190.435    -121.747      44.735
  C      188.505    -123.000      43.539
  O      189.827    -123.070      44.055
  C      188.011    -124.379      43.103
  O      186.701    -124.239      42.487
  C      188.914    -125.089      42.091
  O      188.823    -126.495      42.351
  C      188.244    -124.786      40.763
  O      188.620    -125.711      39.746
  C      186.777    -124.844      41.178
  N      183.818    -125.298      37.032
  C      184.524    -126.208      37.736
  N      185.289    -126.010      38.831
  C      185.284    -124.714      39.184
  C      184.640    -123.669      38.545
  C      183.871    -123.999      37.416
  N      183.142    -123.076      36.704
  N      184.894    -122.476      39.189
  C      185.677    -122.795      40.200
  N      185.919    -124.138      40.251
  O      191.946    -122.156      45.063
  O      190.373    -120.510      43.906
  H      189.584    -125.643      39.612
  H      192.548    -121.421      44.832
  H      184.462    -127.232      37.377
  H      186.092    -122.096      40.913
  H      186.410    -125.875      41.261
  H      188.525    -123.782      40.427
  H      189.960    -124.764      42.119
  H      187.878    -124.998      43.999
  H      188.502    -122.337      42.670
  H      182.511    -123.411      35.994
  H      183.023    -122.145      37.090
  H      187.838    -122.581      44.300
  P      189.905    -127.119      43.357
  C      191.428    -127.848      41.387
  O      190.702    -128.239      42.538
  O      189.010    -127.962      44.384
  O      190.742    -126.103      44.060
  H      189.460    -128.019      45.247
  H      192.315    -128.479      41.298
  H      191.741    -126.800      41.440
  H      190.800    -127.989      40.502
  H      188.299    -120.843      47.366
  H      187.835    -121.207      45.721
  H      188.838    -119.817      46.058

 3  4  5  6  7  8  9  10  11  12  22  25  29  30  31  32 0
 6-311+G(2d,p)
 ****
 33  36  37 0
 6-311+G(2d,p)
 ****
 1  2  13  14  15  16  17  18  19  20  21  23  24  26 0
 3-21G
 ****
 27  28  34  35  38  39  40  41  42  43  44  45  46  47  48 0
 3-21G
 ****


