%nproc=1
%NoSave
%Mem=1900MB
#P OB98/GEN NMR

erre ene a

0 1
  C      277.808    -243.098     -82.627
  O      276.832    -242.898     -83.625
  H      278.141    -242.122     -82.263
  H      278.665    -243.624     -83.055
  H      277.410    -243.669     -81.785
  P      275.858    -244.108     -84.003
  C      274.044    -242.554     -84.984
  O      274.929    -243.640     -85.227
  C      273.760    -241.760     -86.256
  O      274.877    -240.893     -86.549
  C      273.566    -242.660     -87.480
  O      272.241    -243.126     -87.664
  C      273.988    -241.737     -88.621
  O      272.880    -240.958     -89.098
  C      275.041    -240.831     -87.975
  N      278.981    -240.148     -91.161
  C      277.684    -239.681     -91.274
  N      277.403    -238.979     -92.392
  N      276.760    -239.904     -90.376
  C      277.164    -240.703     -89.364
  C      278.416    -241.243     -89.158
  C      279.454    -240.930     -90.117
  O      280.618    -241.304     -90.055
  N      278.443    -242.040     -88.038
  C      277.191    -242.053     -87.625
  N      276.397    -241.192     -88.348
  O      274.820    -244.147     -82.779
  O      276.521    -245.441     -84.173
  H      273.098    -240.640     -89.996
  H      274.524    -245.063     -82.631
  H      279.656    -239.921     -91.868
  H      276.818    -242.624     -86.782
  H      274.900    -239.783     -88.265
  H      274.356    -242.314     -89.473
  H      278.051    -238.852     -93.152
  H      274.261    -243.504     -87.452
  H      276.421    -238.783     -92.602
  H      272.886    -241.115     -86.092
  H      274.534    -241.915     -84.245
  H      273.113    -242.915     -84.540
  P      271.828    -243.932     -88.981
  C      270.005    -245.600     -88.098
  O      270.323    -244.429     -88.818
  O      272.679    -245.281     -88.860
  O      272.084    -243.224     -90.272
  H      273.487    -245.229     -89.405
  H      268.946    -245.750     -88.112
  H      270.338    -245.498     -87.086
  H      270.490    -246.440     -88.550

 6  7  8  9  10  11  12  13  14  15  26  29  33  34 0
 6-311+G(2d,p)
 ****
 36  38  39  40  41 0
 6-311+G(2d,p)
 ****
 1  2  3  4  5  16  17  18  19  20  21  22  23  24  25 0
 3-21G
 ****
 27  28  30  31  32  35  37  42  43  44  45  46  47 0
 3-21G
 ****
 48  49 0
 3-21G
 ****


