%nproc=1
%NoSave
%Mem=1900MB
#P OB98/GEN NMR

erre ene a

0 1
  C       16.353      18.051     310.542
  O       16.554      17.640     309.205
  P       16.465      16.088     308.807
  C       18.800      16.445     307.769
  O       17.986      15.616     308.595
  C       20.217      16.546     308.332
  O       20.206      17.196     309.620
  C       20.898      15.201     308.550
  O       21.354      14.669     307.319
  C       22.002      15.586     309.523
  O       23.137      16.133     308.835
  C       21.312      16.669     310.383
  N       20.882      16.158     311.679
  C       21.903      15.875     312.594
  O       23.081      16.025     312.279
  N       21.560      15.377     313.831
  C       20.313      15.162     314.111
  N       20.038      14.658     315.345
  C       19.211      15.418     313.163
  C       19.565      15.909     311.978
  O       15.532      15.770     307.687
  O       16.061      15.381     310.188
  H       23.533      15.393     308.331
  H       15.113      15.544     310.412
  H       18.187      15.212     313.440
  H       18.820      16.123     311.221
  H       21.995      17.512     310.559
  H       22.361      14.727     310.099
  H       20.203      14.510     309.038
  H       20.810      17.164     307.645
  H       20.824      14.468     315.954
  H       18.352      17.444     307.736
  H       19.106      14.421     315.655
  H       18.814      16.041     306.753
  P       20.672      13.352     306.720
  C       22.629      11.900     307.519
  O       21.226      12.094     307.539
  O       20.732      13.221     305.233
  O       19.151      13.463     307.214
  H       18.559      13.232     306.474
  H       22.904      11.248     308.354
  H       23.159      12.850     307.621
  H       22.917      11.418     306.583
  H       16.452      19.114     310.607
  H       17.082      17.586     311.172
  H       15.372      17.764     310.860

 3  4  5  6  7  8  9  10  11  12  13  23  27  28  29  30  32 0
 6-311+G(2d,p)
 ****
 34  35 0
 6-311+G(2d,p)
 ****
 1  2  14  15  16  17  18  19  20  21  22  24  25  26 0
 3-21G
 ****
 31  33  36  37  38  39  40  41  42  43  44  45  46 0
 3-21G
 ****


