%nproc=1
%NoSave
%Mem=1900MB
#P OB98/GEN NMR

erre ene a

0 1
  C      707.642     158.499     257.242
  O      707.702     157.220     256.636
  H      708.200     159.208     256.627
  H      708.107     158.457     258.236
  H      706.607     158.833     257.328
  P      706.755     156.089     257.259
  C      708.628     155.200     258.866
  O      707.712     154.924     257.816
  C      709.580     154.019     259.065
  O      708.852     152.835     259.461
  C      710.295     153.585     257.803
  O      711.321     154.489     257.415
  C      710.837     152.225     258.232
  O      712.077     152.346     258.938
  C      709.710     151.717     259.166
  N      708.992     150.593     258.576
  C      709.771     149.471     258.282
  O      710.973     149.467     258.541
  N      709.171     148.399     257.667
  C      707.911     148.457     257.351
  N      707.385     147.372     256.720
  C      707.052     149.620     257.645
  C      707.655     150.649     258.252
  O      706.095     155.432     255.956
  O      705.772     156.581     258.255
  H      712.765     152.491     258.256
  H      706.736     155.201     255.269
  H      706.011     149.615     257.373
  H      707.097     151.552     258.509
  H      710.137     151.380     260.125
  H      711.026     151.582     257.367
  H      709.579     153.421     256.980
  H      710.286     154.272     259.859
  H      708.017     146.611     256.491
  H      708.093     155.414     259.797
  H      706.440     147.336     256.360
  H      709.192     156.098     258.593
  P      711.174     155.395     256.104
  C      712.595     153.811     254.662
  O      712.475     155.125     255.201
  O      710.896     156.847     256.348
  O      710.023     154.653     255.269
  H      710.227     153.729     255.029
  H      713.492     153.744     254.082
  H      711.751     153.603     254.039
  H      712.633     153.100     255.461

 6  7  8  9  10  11  12  13  14  15  16  26  30  31  32  33  35 0
 6-311+G(2d,p)
 ****
 37  38 0
 6-311+G(2d,p)
 ****
 1  2  3  4  5  17  18  19  20  21  22  23  24  25 0
 3-21G
 ****
 27  28  29  34  36  39  40  41  42  43  44  45  46 0
 3-21G
 ****


