%nproc=1
%NoSave
%Mem=1900MB
#P OB98/GEN NMR

erre ene a

0 1
  C     -403.647    -322.676     308.461
  O     -403.583    -323.452     309.638
  H     -404.530    -322.029     308.513
  H     -403.732    -323.323     307.584
  H     -402.752    -322.050     308.372
  P     -402.355    -324.481     309.761
  C     -403.423    -325.970     311.597
  O     -402.399    -325.052     311.268
  C     -404.080    -325.585     312.925
  O     -403.216    -326.006     314.023
  C     -404.319    -324.074     313.085
  O     -405.561    -323.869     313.770
  C     -403.183    -323.639     313.993
  O     -403.474    -322.430     314.693
  C     -403.044    -324.865     314.888
  N     -400.567    -323.194     318.938
  C     -401.882    -323.013     318.557
  N     -402.659    -322.268     319.374
  N     -402.394    -323.517     317.456
  C     -401.508    -324.261     316.750
  C     -400.178    -324.507     317.015
  C     -399.618    -323.921     318.216
  O     -398.459    -324.027     318.606
  N     -399.614    -325.279     316.036
  C     -400.597    -325.506     315.176
  N     -401.766    -324.906     315.572
  O     -401.069    -323.524     309.759
  O     -402.280    -325.526     308.698
  H     -402.704    -322.214     315.257
  H     -400.300    -323.981     309.367
  H     -400.223    -322.771     319.786
  H     -400.517    -326.075     314.262
  H     -403.819    -324.908     315.663
  H     -402.266    -323.480     313.400
  H     -402.348    -321.874     320.242
  H     -404.328    -323.526     312.138
  H     -403.631    -322.128     319.115
  H     -405.019    -326.145     313.035
  H     -402.992    -326.975     311.685
  H     -404.177    -325.970     310.806
  P     -406.914    -324.178     312.963
  C     -407.153    -321.871     311.783
  O     -407.695    -322.795     312.723
  O     -407.821    -324.932     314.055
  O     -406.714    -325.028     311.747
  H     -407.882    -325.871     313.831
  H     -407.779    -321.005     311.733
  H     -407.103    -322.331     310.818
  H     -406.170    -321.583     312.092

 6  7  8  9  10  11  12  13  14  15  26  29  33  34 0
 6-311+G(2d,p)
 ****
 36  38  39  40  41 0
 6-311+G(2d,p)
 ****
 1  2  3  4  5  16  17  18  19  20  21  22  23  24  25 0
 3-21G
 ****
 27  28  30  31  32  35  37  42  43  44  45  46  47 0
 3-21G
 ****
 48  49 0
 3-21G
 ****


