%nproc=1
%NoSave
%Mem=1900MB
#P OB98/GEN NMR

erre ene a

0 1
  C      966.299    -150.605      71.385
  O      967.679    -150.377      71.573
  H      965.991    -151.423      72.044
  H      966.115    -150.901      70.350
  H      965.711    -149.718      71.628
  P      968.302    -148.987      71.086
  C      970.333    -148.622      72.639
  O      969.886    -149.034      71.356
  C      971.862    -148.559      72.723
  O      972.427    -149.872      72.527
  C      972.461    -147.670      71.628
  O      972.499    -146.283      71.921
  C      973.875    -148.236      71.511
  O      974.751    -147.640      72.483
  C      973.666    -149.726      71.812
  N      976.008    -151.037      67.461
  C      976.355    -150.053      68.380
  N      977.428    -149.294      68.061
  N      975.696    -149.841      69.484
  C      974.590    -150.613      69.621
  C      974.144    -151.605      68.776
  C      974.911    -151.875      67.581
  O      974.647    -152.726      66.733
  N      972.983    -152.184      69.249
  C      972.700    -151.490      70.331
  N      973.658    -150.543      70.617
  O      967.799    -147.940      72.199
  O      967.896    -148.544      69.715
  H      975.648    -147.979      72.336
  H      967.753    -147.045      71.818
  H      976.567    -151.177      66.650
  H      971.828    -151.647      70.960
  H      974.455    -150.115      72.465
  H      974.307    -148.036      70.526
  H      977.890    -149.347      67.169
  H      971.946    -147.832      70.675
  H      977.547    -148.409      68.563
  H      972.155    -148.221      73.722
  H      969.950    -149.351      73.356
  H      969.897    -147.656      72.900
  P      972.139    -145.214      70.782
  C      970.924    -143.779      72.579
  O      971.853    -143.820      71.517
  O      970.682    -145.694      70.291
  O      973.104    -145.150      69.653
  H      970.767    -146.246      69.496
  H      970.854    -142.779      72.953
  H      971.249    -144.431      73.362
  H      969.965    -144.096      72.226

 6  7  8  9  10  11  12  13  14  15  26  29  33  34 0
 6-311+G(2d,p)
 ****
 36  38  39  40  41 0
 6-311+G(2d,p)
 ****
 1  2  3  4  5  16  17  18  19  20  21  22  23  24  25 0
 3-21G
 ****
 27  28  30  31  32  35  37  42  43  44  45  46  47 0
 3-21G
 ****
 48  49 0
 3-21G
 ****


