%nproc=1
%NoSave
%Mem=1900MB
#P OB98/GEN NMR

erre ene a

0 1
  C       -4.941      30.967       2.610
  O       -4.490      30.052       1.624
  P       -5.412      29.664       0.371
  C       -6.157      27.427       1.396
  O       -6.562      28.725       0.978
  C       -7.203      26.827       2.330
  O       -7.215      27.596       3.556
  C       -8.645      26.857       1.825
  O       -8.994      25.777       0.971
  C       -9.407      26.725       3.138
  O       -9.406      25.351       3.565
  C       -8.563      27.576       4.089
  N      -11.960      30.608       6.421
  C      -11.690      29.289       6.543
  N      -10.782      28.550       5.872
  C      -10.080      29.321       5.026
  C      -10.235      30.677       4.796
  C      -11.230      31.332       5.541
  N      -11.487      32.681       5.431
  N       -9.342      31.115       3.837
  C       -8.654      30.042       3.509
  N       -9.056      28.936       4.206
  O       -4.670      29.111      -0.795
  O       -6.196      31.013       0.025
  H       -9.739      24.820       2.816
  H       -6.577      30.956      -0.872
  H      -12.288      28.752       7.276
  H       -7.862      30.018       2.774
  H       -8.507      27.151       5.098
  H      -10.453      27.032       3.055
  H       -8.887      27.822       1.365
  H       -6.898      25.803       2.578
  H       -5.206      27.520       1.933
  H      -12.125      33.087       6.096
  H      -10.839      33.246       4.900
  H       -5.997      26.792       0.521
  P       -9.854      26.130      -0.341
  C      -12.181      25.439       0.635
  O      -11.329      26.470       0.188
  O       -9.780      25.112      -1.423
  O       -9.277      27.561      -0.768
  H       -9.470      28.286      -0.152
  H      -13.063      25.888       1.099
  H      -11.680      24.811       1.376
  H      -12.504      24.825      -0.211
  H       -4.184      31.090       3.356
  H       -5.832      30.589       3.066
  H       -5.147      31.912       2.152

 3  4  5  6  7  8  9  10  11  12  22  25  29  30  31  32 0
 6-311+G(2d,p)
 ****
 33  36  37 0
 6-311+G(2d,p)
 ****
 1  2  13  14  15  16  17  18  19  20  21  23  24  26 0
 3-21G
 ****
 27  28  34  35  38  39  40  41  42  43  44  45  46  47  48 0
 3-21G
 ****


