%nproc=1
%NoSave
%Mem=1900MB
#P OB98/GEN NMR

erre ene a

0 1
  C     -114.756      87.716    -211.960
  O     -114.273      87.670    -210.616
  P     -112.756      88.136    -210.377
  C     -112.473      88.746    -207.874
  O     -112.333      87.751    -208.877
  C     -113.866      88.721    -207.232
  O     -114.144      87.422    -206.645
  C     -114.050      89.766    -206.130
  O     -115.413      90.197    -206.171
  C     -113.831      88.966    -204.861
  O     -114.413      89.616    -203.733
  C     -114.475      87.626    -205.256
  N     -114.034      86.509    -204.424
  C     -114.927      86.046    -203.455
  O     -116.006      86.618    -203.281
  N     -114.566      84.975    -202.678
  C     -113.391      84.446    -202.820
  N     -113.090      83.389    -202.017
  C     -112.392      84.938    -203.787
  C     -112.781      85.959    -204.550
  O     -112.860      89.733    -210.345
  O     -111.814      87.672    -211.440
  H     -114.330      89.017    -202.960
  H     -112.193      90.122    -210.939
  H     -111.417      84.479    -203.855
  H     -112.121      86.388    -205.290
  H     -115.569      87.688    -205.180
  H     -112.759      88.836    -204.675
  H     -113.386      90.629    -206.230
  H     -114.606      88.886    -208.024
  H     -113.804      83.074    -201.370
  H     -112.297      89.734    -208.306
  H     -112.206      82.902    -202.040
  H     -111.692      88.602    -207.120
  P     -115.744      91.605    -206.859
  C     -117.732      90.918    -208.332
  O     -117.324      91.561    -207.141
  O     -115.154      91.388    -208.336
  O     -115.204      92.847    -206.236
  H     -115.231      92.214    -208.845
  H     -118.823      90.852    -208.335
  H     -117.316      89.907    -208.382
  H     -117.414      91.501    -209.200
  H     -115.773      87.383    -211.985
  H     -114.157      87.079    -212.576
  H     -114.700      88.720    -212.325

 3  4  5  6  7  8  9  10  11  12  13  21  23  27  28  29  30  32 0
 6-311+G(2d,p)
 ****
 34  35 0
 6-311+G(2d,p)
 ****
 1  2  14  15  16  17  18  19  20  22  24  25  26 0
 3-21G
 ****
 31  33  36  37  38  39  40  41  42  43  44  45  46 0
 3-21G
 ****


