%nproc=1
%NoSave
%Mem=1900MB
#P OB98/GEN NMR

erre ene a

0 1
  C     -237.108    -258.948    -163.099
  O     -237.144    -260.058    -162.228
  H     -236.179    -258.400    -162.928
  H     -237.949    -258.278    -162.900
  H     -237.133    -259.279    -164.142
  P     -238.441    -261.000    -162.231
  C     -237.225    -262.808    -160.845
  O     -238.343    -261.928    -160.926
  C     -236.037    -262.094    -160.191
  O     -236.525    -261.415    -159.008
  C     -234.928    -263.068    -159.766
  O     -233.645    -262.704    -160.267
  C     -235.107    -263.161    -158.254
  O     -233.932    -263.504    -157.548
  C     -235.701    -261.796    -157.891
  N     -236.480    -261.803    -156.656
  C     -235.788    -261.616    -155.462
  O     -234.577    -261.434    -155.367
  N     -236.553    -261.638    -154.323
  C     -237.902    -261.837    -154.261
  O     -238.534    -261.844    -153.213
  C     -238.572    -262.057    -155.554
  C     -237.843    -262.031    -156.671
  O     -238.699    -261.737    -163.503
  O     -239.644    -260.005    -161.874
  H     -233.203    -262.969    -157.925
  H     -240.164    -259.819    -162.680
  H     -236.067    -261.488    -153.453
  H     -239.638    -262.231    -155.542
  H     -238.305    -262.188    -157.643
  H     -234.912    -261.051    -157.780
  H     -235.850    -263.939    -158.044
  H     -235.094    -264.062    -160.202
  H     -235.660    -261.330    -160.878
  H     -236.969    -263.118    -161.863
  H     -237.496    -263.693    -160.258
  P     -232.824    -263.518    -161.366
  C     -230.595    -262.299    -162.055
  O     -231.269    -263.195    -161.181
  O     -233.362    -263.462    -162.757
  O     -232.931    -265.047    -160.866
  H     -232.928    -265.601    -161.676
  H     -229.569    -262.220    -161.763
  H     -231.056    -261.335    -162.002
  H     -230.653    -262.667    -163.058

 6  7  8  9  10  11  12  13  14  15  16  26  31  32  33  34  35 0
 6-311+G(2d,p)
 ****
 36  37 0
 6-311+G(2d,p)
 ****
 1  2  3  4  5  17  18  19  20  21  22  23  24  25 0
 3-21G
 ****
 27  28  29  30  38  39  40  41  42  43  44  45 0
 3-21G
 ****


