%nproc=1
%NoSave
%Mem=1900MB
#P OB98/GEN NMR

erre ene a

0 1
  C     -327.172      80.073     -69.525
  O     -326.997      78.673     -69.459
  H     -327.501      80.344     -70.537
  H     -326.230      80.589     -69.310
  H     -327.938      80.394     -68.811
  P     -326.414      78.093     -68.077
  C     -323.977      77.381     -67.477
  O     -324.822      78.202     -68.265
  C     -322.634      77.193     -68.181
  O     -322.834      76.767     -69.550
  C     -321.793      78.464     -68.270
  O     -321.114      78.769     -67.064
  C     -320.823      78.070     -69.371
  O     -319.827      77.173     -68.846
  C     -321.770      77.336     -70.350
  N     -322.319      78.219     -71.390
  C     -321.445      78.648     -72.392
  O     -320.260      78.299     -72.381
  N     -321.917      79.496     -73.374
  C     -323.160      79.874     -73.363
  N     -323.563      80.719     -74.342
  C     -324.124      79.434     -72.334
  C     -323.648      78.621     -71.400
  O     -326.664      76.513     -68.198
  O     -326.963      78.709     -66.836
  H     -319.287      77.692     -68.215
  H     -326.228      76.043     -67.446
  H     -325.153      79.776     -72.359
  H     -324.297      78.255     -70.599
  H     -321.250      76.512     -70.854
  H     -320.291      78.924     -69.803
  H     -322.387      79.317     -68.617
  H     -322.090      76.384     -67.668
  H     -322.877      81.055     -75.003
  H     -324.462      76.411     -67.340
  H     -324.452      81.207     -74.312
  H     -323.809      77.838     -66.498
  P     -321.206      80.272     -66.518
  C     -320.051      82.526     -67.139
  O     -320.354      81.187     -67.525
  O     -320.276      80.242     -65.210
  O     -322.591      80.756     -66.210
  H     -320.669      80.782     -64.492
  H     -319.482      83.000     -67.912
  H     -319.482      82.516     -66.233
  H     -320.961      83.067     -66.983

 6  7  8  9  10  11  12  13  14  15  16  26  30  31  32  33  35 0
 6-311+G(2d,p)
 ****
 37  38 0
 6-311+G(2d,p)
 ****
 1  2  3  4  5  17  18  19  20  21  22  23  24  25 0
 3-21G
 ****
 27  28  29  34  36  39  40  41  42  43  44  45  46 0
 3-21G
 ****


