%nproc=1
%NoSave
%Mem=1900MB
#P OB98/GEN NMR

erre ene a

0 1
  C      296.139    -110.587    -103.932
  O      295.305    -109.455    -104.075
  H      295.956    -111.301    -104.740
  H      297.180    -110.262    -103.976
  H      295.959    -111.067    -102.964
  P      293.726    -109.738    -104.142
  C      293.551    -107.399    -105.252
  O      293.139    -108.762    -105.275
  C      292.710    -106.581    -106.225
  O      293.023    -106.950    -107.587
  C      291.204    -106.778    -106.090
  O      290.664    -106.041    -105.001
  C      290.728    -106.229    -107.428
  O      290.675    -104.787    -107.371
  C      291.842    -106.673    -108.387
  N      289.940    -108.461    -112.816
  C      290.142    -107.199    -112.362
  N      290.641    -106.799    -111.170
  C      290.965    -107.859    -110.412
  C      290.824    -109.199    -110.736
  C      290.276    -109.487    -112.001
  N      290.064    -110.777    -112.451
  N      291.278    -110.007    -109.719
  C      291.689    -109.167    -108.787
  N      291.518    -107.858    -109.157
  O      293.172    -109.100    -102.780
  O      293.338    -111.175    -104.272
  H      290.135    -104.555    -106.597
  H      292.437    -109.650    -102.448
  H      289.867    -106.403    -113.048
  H      292.124    -109.461    -107.838
  H      292.114    -105.875    -109.088
  H      289.730    -106.581    -107.709
  H      290.946    -107.842    -106.021
  H      292.976    -105.523    -106.094
  H      294.602    -107.333    -105.540
  H      289.859    -110.924    -113.424
  H      290.324    -111.544    -111.838
  H      293.434    -107.013    -104.233
  P      289.543    -106.763    -104.104
  C      289.022    -104.572    -102.815
  O      288.528    -105.598    -103.665
  O      290.325    -107.098    -102.746
  O      288.933    -107.984    -104.705
  H      289.903    -107.855    -102.293
  H      288.239    -103.872    -102.609
  H      289.833    -104.068    -103.298
  H      289.366    -105.003    -101.898

 6  7  8  9  10  11  12  13  14  15  25  28  32  33  34  35 0
 6-311+G(2d,p)
 ****
 36  39  40 0
 6-311+G(2d,p)
 ****
 1  2  3  4  5  16  17  18  19  20  21  22  23  24 0
 3-21G
 ****
 26  27  29  30  31  37  38  41  42  43  44  45  46  47  48 0
 3-21G
 ****


