%nproc=1
%NoSave
%Mem=1900MB
#P OB98/GEN NMR

erre ene a

0 1
  C      -14.817     -73.423     170.360
  O      -13.636     -74.069     170.798
  H      -14.542     -72.646     169.640
  H      -15.319     -72.951     171.205
  H      -15.486     -74.133     169.869
  P      -13.757     -75.347     171.756
  C      -12.695     -76.801     169.907
  O      -12.654     -76.415     171.273
  C      -11.444     -77.608     169.536
  O      -10.275     -76.777     169.761
  C      -11.271     -78.898     170.351
  O      -10.734     -79.918     169.511
  C      -10.254     -78.508     171.409
  O       -9.516     -79.632     171.888
  C       -9.392     -77.489     170.657
  N       -4.925     -75.559     172.031
  C       -5.244     -76.422     171.001
  N       -4.224     -76.849     170.227
  N       -6.460     -76.833     170.747
  C       -7.390     -76.302     171.586
  C       -7.202     -75.446     172.641
  C       -5.849     -75.014     172.922
  O       -5.501     -74.267     173.835
  N       -8.393     -75.152     173.268
  C       -9.297     -75.838     172.591
  N       -8.738     -76.563     171.567
  O      -15.142     -75.901     171.897
  O      -13.181     -74.846     173.162
  H       -9.131     -80.075     171.100
  H      -13.900     -74.696     173.800
  H       -3.972     -75.285     172.189
  H      -10.358     -75.847     172.801
  H       -8.603     -77.965     170.059
  H      -10.762     -78.039     172.259
  H       -3.265     -76.555     170.350
  H      -12.210     -79.236     170.788
  H       -4.433     -77.460     169.445
  H      -11.477     -77.829     168.461
  H      -12.745     -75.896     169.292
  H      -13.596     -77.405     169.727
  P      -11.731     -80.770     168.585
  C      -10.018     -81.331     166.748
  O      -10.875     -81.852     167.757
  O      -12.685     -79.967     167.764
  O      -12.517     -81.683     169.648
  H      -13.430     -81.809     169.336
  H       -9.503     -82.136     166.267
  H       -9.306     -80.667     167.192
  H      -10.600     -80.798     166.026

 6  7  8  9  10  11  12  13  14  15  26  29  33  34 0
 6-311+G(2d,p)
 ****
 36  38  39  40  41 0
 6-311+G(2d,p)
 ****
 1  2  3  4  5  16  17  18  19  20  21  22  23  24  25 0
 3-21G
 ****
 27  28  30  31  32  35  37  42  43  44  45  46  47 0
 3-21G
 ****
 48  49 0
 3-21G
 ****


