%nproc=1
%NoSave
%Mem=1900MB
#P OB98/GEN NMR

erre ene a

0 1
  C       48.966    1025.153    -178.293
  O       49.727    1023.959    -178.443
  P       50.770    1023.892    -179.654
  C       50.727    1022.972    -182.070
  O       50.042    1023.060    -180.832
  C       49.943    1022.126    -183.067
  O       49.932    1020.736    -182.578
  C       48.481    1022.542    -183.257
  O       48.145    1022.497    -184.662
  C       47.687    1021.436    -182.560
  O       46.369    1021.312    -183.087
  C       48.604    1020.230    -182.822
  N       48.609    1015.172    -182.739
  C       49.178    1016.050    -183.656
  N       49.786    1015.494    -184.729
  N       49.150    1017.355    -183.528
  C       48.530    1017.768    -182.390
  C       47.950    1017.009    -181.418
  C       47.934    1015.577    -181.592
  O       47.382    1014.755    -180.866
  N       47.449    1017.805    -180.399
  C       47.727    1019.040    -180.773
  N       48.347    1019.073    -181.995
  O       51.877    1022.866    -179.103
  O       51.369    1025.190    -180.051
  H       45.862    1020.785    -182.441
  H       52.765    1023.303    -179.138
  H       48.636    1014.177    -182.887
  H       47.480    1019.941    -180.202
  H       48.541    1019.921    -183.867
  H       47.626    1021.667    -181.485
  H       49.870    1014.487    -184.875
  H       48.238    1023.544    -182.850
  H       50.229    1016.099    -185.401
  H       50.470    1022.113    -184.021
  H       51.721    1022.538    -181.913
  H       50.861    1023.991    -182.486
  P       47.035    1023.540    -185.144
  C       44.496    1023.362    -185.702
  O       45.657    1022.718    -185.262
  O       47.431    1023.810    -186.690
  O       46.993    1024.802    -184.342
  H       47.097    1024.678    -186.975
  H       44.695    1024.349    -186.109
  H       43.790    1023.439    -184.863
  H       44.028    1022.757    -186.484
  H       48.315    1025.057    -177.449
  H       48.384    1025.318    -179.176
  H       49.627    1025.981    -178.142

 3  4  5  6  7  8  9  10  11  12  23  26  30  31  33  0
 6-311+G(2d,p)
 ****
 35  36  37  38 0
 6-311+G(2d,p)
 ****
 1  2  13  14  15  16  17  18  19  20  21  22  24  25  27  28  29 0
 3-21G
 ****
 32  34  39  40  41  42  43  44  45  46  47  48  49 0
 3-21G
 ****


