%nproc=1
%NoSave
%Mem=1900MB
#P OB98/GEN NMR

erre ene a

0 1
  C     -402.897     567.583    -216.738
  O     -404.044     567.020    -216.109
  P     -405.379     567.916    -216.061
  C     -406.904     566.223    -217.381
  O     -406.238     567.478    -217.345
  C     -406.359     565.371    -218.538
  O     -404.951     565.131    -218.347
  C     -406.992     563.995    -218.667
  O     -408.284     564.058    -219.252
  C     -405.946     563.261    -219.489
  O     -406.091     563.592    -220.885
  C     -404.636     563.852    -218.934
  N     -403.965     562.973    -217.976
  C     -403.656     561.690    -218.423
  O     -403.925     561.290    -219.552
  N     -403.049     560.874    -217.502
  C     -402.784     561.186    -216.204
  O     -402.277     560.395    -215.408
  C     -403.155     562.544    -215.777
  C     -403.721     563.363    -216.672
  O     -404.785     569.349    -216.439
  O     -406.086     567.841    -214.750
  H     -403.981     569.281    -216.989
  H     -406.949     563.212    -221.171
  H     -402.796     559.945    -217.811
  H     -402.973     562.825    -214.753
  H     -404.013     564.359    -216.380
  H     -403.932     564.060    -219.758
  H     -406.024     562.170    -219.405
  H     -407.069     563.529    -217.667
  H     -406.483     565.940    -219.470
  H     -407.974     566.400    -217.531
  H     -406.757     565.714    -216.429
  P     -409.541     563.945    -218.256
  C     -410.712     565.866    -219.587
  O     -410.300     565.361    -218.337
  O     -408.812     563.976    -216.832
  O     -410.384     562.743    -218.488
  H     -408.086     564.627    -216.789
  H     -411.496     566.616    -219.420
  H     -411.111     565.086    -220.234
  H     -409.860     566.354    -220.084
  H     -402.089     566.883    -216.698
  H     -402.616     568.482    -216.230
  H     -403.124     567.807    -217.759

 3  4  5  6  7  8  9  10  11  12  13  24  28  29  30  31  32 0
 6-311+G(2d,p)
 ****
 33  34 0
 6-311+G(2d,p)
 ****
 1  2  14  15  16  17  18  19  20  21  22  23  25  26  27 0
 3-21G
 ****
 35  36  37  38  39  40  41  42  43  44  45 0
 3-21G
 ****


