%nproc=1
%NoSave
%Mem=1900MB
#P OB98/GEN NMR

erre ene a

0 1
  C     -957.395    -917.032    -510.825
  O     -957.118    -916.725    -512.175
  H     -958.184    -917.783    -510.790
  H     -957.746    -916.137    -510.301
  H     -956.505    -917.435    -510.323
  P     -955.876    -915.763    -512.508
  C     -955.431    -913.242    -512.274
  O     -956.169    -914.355    -511.806
  C     -956.320    -911.986    -512.269
  O     -957.055    -911.928    -511.021
  C     -955.542    -910.679    -512.337
  O     -955.070    -910.426    -513.641
  C     -956.585    -909.702    -511.829
  O     -957.496    -909.330    -512.868
  C     -957.300    -910.521    -510.739
  N     -956.874    -910.172    -509.392
  C     -957.261    -908.930    -508.917
  O     -957.951    -908.147    -509.567
  N     -956.787    -908.596    -507.680
  C     -955.864    -909.290    -506.958
  O     -955.284    -908.828    -505.984
  C     -955.532    -910.625    -507.482
  C     -956.031    -911.014    -508.653
  O     -955.492    -915.687    -513.955
  O     -954.685    -916.371    -511.617
  H     -954.092    -916.891    -512.185
  H     -957.934    -910.161    -513.153
  H     -957.042    -907.665    -507.343
  H     -954.868    -911.248    -506.898
  H     -955.772    -911.968    -509.067
  H     -958.393    -910.381    -510.815
  H     -956.126    -908.783    -511.440
  H     -954.701    -910.712    -511.631
  H     -957.042    -912.055    -513.078
  H     -955.113    -913.438    -513.316
  H     -954.555    -913.093    -511.649
  P     -954.080    -909.190    -513.927
  C     -954.189    -906.631    -514.005
  O     -954.926    -907.837    -513.808
  O     -953.252    -909.308    -515.150
  O     -953.161    -909.147    -512.614
  H     -952.207    -909.092    -512.902
  H     -954.845    -905.792    -513.905
  H     -953.759    -906.632    -514.985
  H     -953.411    -906.565    -513.274

 6  7  8  9  10  11  12  13  14  15  16  27  31  32  33  34  35 0
 6-311+G(2d,p)
 ****
 36  37 0
 6-311+G(2d,p)
 ****
 1  2  3  4  5  17  18  19  20  21  22  23  24  25 0
 3-21G
 ****
 26  28  29  30  38  39  40  41  42  43  44  45 0
 3-21G
 ****


