%nproc=1
%NoSave
%Mem=1900MB
#P OB98/GEN NMR

erre ene a

0 1
  C      290.822      93.369    -318.023
  O      291.201      92.913    -316.740
  H      290.654      92.517    -318.688
  H      289.890      93.936    -317.932
  H      291.593      94.026    -318.444
  P      292.637      92.206    -316.618
  C      291.484      89.890    -316.368
  O      292.415      90.685    -317.089
  C      291.962      88.437    -316.297
  O      292.006      87.892    -317.646
  C      293.366      88.283    -315.687
  O      293.390      87.108    -314.876
  C      294.255      88.094    -316.903
  O      295.455      87.392    -316.589
  C      293.322      87.349    -317.851
  N      296.673      85.841    -321.411
  C      296.457      85.436    -320.139
  N      295.537      85.884    -319.258
  C      294.761      86.828    -319.824
  C      294.862      87.350    -321.104
  C      295.881      86.823    -321.912
  N      296.138      87.261    -323.195
  N      293.911      88.332    -321.308
  C      293.244      88.396    -320.164
  N      293.727      87.511    -319.239
  O      292.831      92.088    -315.033
  O      293.771      92.927    -317.270
  H      296.095      87.523    -317.323
  H      293.123      92.948    -314.674
  H      297.113      84.643    -319.780
  H      292.420      89.067    -319.956
  H      293.294      86.269    -317.648
  H      294.530      89.074    -317.315
  H      293.659      89.146    -315.086
  H      291.217      87.849    -315.739
  H      290.512      89.934    -316.878
  H      296.926      86.869    -323.686
  H      295.599      88.033    -323.568
  H      291.373      90.293    -315.353
  P      293.534      87.327    -313.291
  C      296.003      86.693    -312.795
  O      295.059      87.738    -312.970
  O      293.406      85.846    -312.696
  O      292.505      88.234    -312.711
  H      292.760      85.831    -311.965
  H      296.966      87.113    -312.589
  H      296.053      86.105    -313.687
  H      295.702      86.074    -311.976

 6  7  8  9  10  11  12  13  14  15  25  28  32  33  34  35 0
 6-311+G(2d,p)
 ****
 36  39  40 0
 6-311+G(2d,p)
 ****
 1  2  3  4  5  16  17  18  19  20  21  22  23  24 0
 3-21G
 ****
 26  27  29  30  31  37  38  41  42  43  44  45  46  47 0
 3-21G
 ****
 48 0
 3-21G
 ****


