%nproc=1
%NoSave
%Mem=1900MB
#P OB98/GEN NMR

erre ene a

0 1
  C     -740.975      -2.627     456.906
  O     -740.860      -3.775     456.089
  H     -740.270      -2.719     457.738
  H     -741.985      -2.558     457.323
  H     -740.735      -1.720     456.346
  P     -741.680      -3.821     454.716
  C     -739.975      -5.164     453.319
  O     -740.606      -3.904     453.527
  C     -738.545      -4.948     452.812
  O     -737.738      -4.334     453.845
  C     -737.824      -6.237     452.438
  O     -738.269      -6.735     451.192
  C     -736.377      -5.779     452.455
  O     -736.036      -5.101     451.239
  C     -736.375      -4.798     453.655
  N     -735.853      -5.399     454.878
  C     -734.501      -5.187     455.151
  O     -733.761      -4.561     454.394
  N     -734.029      -5.745     456.306
  C     -734.726      -6.575     457.142
  O     -734.233      -7.128     458.116
  C     -736.137      -6.783     456.802
  C     -736.635      -6.200     455.708
  O     -742.724      -2.767     454.547
  O     -742.330      -5.295     454.710
  H     -735.082      -4.887     451.292
  H     -743.279      -5.223     454.925
  H     -733.048      -5.618     456.508
  H     -736.734      -7.422     457.446
  H     -737.679      -6.339     455.431
  H     -735.777      -3.911     453.427
  H     -735.684      -6.604     452.576
  H     -737.970      -6.993     453.218
  H     -738.584      -4.263     451.955
  H     -740.544      -5.722     452.570
  H     -739.972      -5.722     454.262
  P     -739.138      -8.079     451.124
  C     -741.144      -7.049     449.897
  O     -740.688      -7.669     451.097
  O     -738.777      -9.119     452.135
  O     -738.885      -8.624     449.641
  H     -738.469      -9.506     449.679
  H     -742.185      -6.819     449.988
  H     -740.996      -7.715     449.073
  H     -740.593      -6.147     449.730

 6  7  8  9  10  11  12  13  14  15  16  26  31  32  33  34  35 0
 6-311+G(2d,p)
 ****
 36  37 0
 6-311+G(2d,p)
 ****
 1  2  3  4  5  17  18  19  20  21  22  23  24  25 0
 3-21G
 ****
 27  28  29  30  38  39  40  41  42  43  44  45 0
 3-21G
 ****


