%nproc=1
%NoSave
%Mem=1900MB
#P OB98/GEN NMR

erre ene a

0 1
  C      167.495     -12.815     -30.077
  O      166.829     -12.977     -31.311
  H      167.220     -11.846     -29.655
  H      168.576     -12.833     -30.236
  H      167.211     -13.597     -29.368
  P      166.821     -14.421     -32.004
  C      164.621     -15.278     -30.968
  O      166.035     -15.401     -31.005
  C      163.954     -16.658     -30.935
  O      164.229     -17.280     -29.647
  C      162.428     -16.617     -31.108
  O      162.040     -17.832     -31.763
  C      161.953     -16.619     -29.669
  O      160.595     -16.982     -29.573
  C      162.959     -17.586     -29.039
  N      163.005     -17.470     -27.582
  C      162.002     -18.122     -26.876
  O      161.088     -18.743     -27.421
  N      162.048     -18.002     -25.515
  C      162.948     -17.258     -24.811
  O      162.925     -17.160     -23.591
  C      163.962     -16.553     -25.613
  C      163.947     -16.693     -26.941
  O      168.148     -14.929     -32.459
  O      165.792     -14.270     -33.221
  H      160.035     -16.341     -30.064
  H      166.047     -14.864     -33.952
  H      161.333     -18.479     -24.988
  H      164.685     -15.947     -25.087
  H      164.680     -16.186     -27.559
  H      162.706     -18.625     -29.288
  H      162.056     -15.622     -29.229
  H      162.083     -15.750     -31.674
  H      164.422     -17.290     -31.698
  H      164.306     -14.736     -31.865
  H      164.327     -14.703     -30.084
  P      162.430     -18.142     -33.289
  C      164.683     -19.075     -32.459
  O      164.028     -18.234     -33.403
  O      161.797     -17.224     -34.282
  O      161.954     -19.652     -33.531
  H      161.738     -19.781     -34.474
  H      165.738     -19.054     -32.635
  H      164.323     -20.077     -32.564
  H      164.479     -18.725     -31.468

 6  7  8  9  10  11  12  13  14  15  16  26  31  32  33  34  35 0
 6-311+G(2d,p)
 ****
 36  37 0
 6-311+G(2d,p)
 ****
 1  2  3  4  5  17  18  19  20  21  22  23  24  25 0
 3-21G
 ****
 27  28  29  30  38  39  40  41  42  43  44  45 0
 3-21G
 ****


