%nproc=1
%NoSave
%Mem=1900MB
#P OB98/GEN NMR

erre ene a

0 1
  C      143.515      83.301      38.118
  O      143.512      83.919      36.847
  H      142.510      83.365      38.542
  H      144.209      83.826      38.779
  H      143.798      82.248      38.039
  P      144.787      83.653      35.909
  C      145.758      81.554      34.728
  O      144.912      82.060      35.750
  C      146.449      80.277      35.196
  O      147.298      80.551      36.332
  C      145.494      79.170      35.631
  O      145.022      78.420      34.519
  C      146.415      78.331      36.502
  O      147.284      77.536      35.666
  C      147.232      79.407      37.230
  N      146.771      78.330      42.164
  C      147.374      77.608      41.152
  N      147.926      76.427      41.505
  N      147.429      78.003      39.907
  C      146.814      79.192      39.697
  C      146.177      79.996      40.615
  C      146.138      79.555      41.990
  O      145.625      80.163      42.926
  N      145.672      81.127      40.030
  C      145.983      80.996      38.756
  N      146.674      79.838      38.501
  O      146.014      84.039      36.866
  O      144.820      84.438      34.642
  H      147.624      78.124      34.967
  H      146.344      84.922      36.615
  H      146.747      77.975      43.104
  H      145.740      81.712      37.982
  H      148.260      79.085      37.426
  H      145.870      77.636      37.144
  H      147.901      76.053      42.440
  H      144.669      79.560      36.238
  H      148.377      75.883      40.779
  H      147.098      79.929      34.381
  H      146.513      82.310      34.485
  H      145.156      81.349      33.837
  P      143.562      77.761      34.613
  C      141.173      78.730      34.893
  O      142.563      78.908      35.130
  O      143.700      76.787      35.876
  O      143.120      77.019      33.400
  H      143.661      75.855      35.583
  H      140.634      79.565      35.289
  H      140.842      77.832      35.372
  H      140.997      78.658      33.840

 6  7  8  9  10  11  12  13  14  15  26  29  33  34 0
 6-311+G(2d,p)
 ****
 36  38  39  40  41 0
 6-311+G(2d,p)
 ****
 1  2  3  4  5  16  17  18  19  20  21  22  23  24  25 0
 3-21G
 ****
 27  28  30  31  32  35  37  42  43  44  45  46  47 0
 3-21G
 ****
 48  49 0
 3-21G
 ****


