%nproc=1
%NoSave
%Mem=1900MB
#P OB98/GEN NMR

erre ene a

0 1
  C     -895.230     666.020     157.864
  O     -894.870     665.129     158.908
  P     -893.360     664.571     158.926
  C     -892.320     662.281     158.302
  O     -893.310     663.258     158.003
  C     -892.310     661.184     157.219
  O     -893.520     660.408     157.299
  C     -892.210     661.746     155.791
  O     -891.460     660.832     154.966
  C     -893.650     661.704     155.295
  O     -893.720     661.666     153.876
  C     -894.160     660.439     155.997
  N     -898.420     658.685     153.926
  C     -897.130     658.296     153.708
  N     -896.920     657.377     152.722
  N     -896.100     658.766     154.383
  C     -896.440     659.688     155.310
  C     -897.710     660.149     155.630
  C     -898.820     659.632     154.871
  O     -900.000     659.955     155.000
  N     -897.660     661.050     156.646
  C     -896.370     661.187     156.929
  N     -895.600     660.394     156.116
  O     -893.230     663.978     160.423
  O     -892.310     665.596     158.668
  H     -894.670     661.665     153.627
  H     -892.680     664.578     160.965
  H     -899.180     658.311     153.375
  H     -895.960     661.843     157.681
  H     -893.830     659.531     155.461
  H     -894.190     662.593     155.639
  H     -897.660     657.014     152.141
  H     -891.780     662.743     155.718
  H     -895.970     657.101     152.523
  H     -891.470     660.508     157.427
  H     -892.550     661.819     159.262
  H     -891.340     662.749     158.367
  P     -890.120     661.423     154.301
  C     -889.660     662.319     151.897
  O     -890.590     662.116     152.931
  O     -889.350     660.101     153.814
  O     -889.310     662.271     155.212
  H     -888.380     660.290     153.772
  H     -889.940     661.730     151.027
  H     -888.630     662.030     152.206
  H     -889.650     663.376     151.633
  H     -896.255     666.307     157.977
  H     -895.098     665.535     156.920
  H     -894.609     666.890     157.908

 3  4  5  6  7  8  9  10  11  12  23  26  30  31 0
 6-311+G(2d,p)
 ****
 33  35  36  37  38 0
 6-311+G(2d,p)
 ****
 1  2  13  14  15  16  17  18  19  20  21  22  24  25 0
 3-21G
 ****
 27  28  29  32  34  39  40  41  42  43  44  45  46  47  48  49 0
 3-21G
 ****


