%nproc=1
%NoSave
%Mem=1900MB
#P OB98/GEN NMR

erre ene a

0 1
  C      103.319    -251.980      83.801
  O      102.037    -252.593      83.761
  P      101.975    -254.173      83.475
  C      100.936    -254.930      81.216
  O      102.043    -254.324      81.878
  C       99.879    -253.885      80.874
  O      100.500    -252.716      80.307
  C       98.849    -254.343      79.852
  O       97.814    -255.117      80.440
  C       98.303    -253.003      79.378
  O       97.357    -252.494      80.338
  C       99.563    -252.131      79.364
  N       98.872    -250.691      74.506
  C       98.035    -250.717      75.564
  N       98.290    -251.126      76.825
  C       99.553    -251.574      76.931
  C      100.507    -251.645      75.930
  C      100.132    -251.166      74.666
  N      100.998    -251.112      73.596
  N      101.684    -252.168      76.417
  C      101.452    -252.400      77.693
  N      100.179    -252.049      78.054
  O      100.457    -254.541      83.818
  O      102.945    -254.993      84.255
  H       96.606    -253.122      80.356
  H      100.385    -255.490      84.037
  H       97.028    -250.351      75.377
  H      102.171    -252.810      78.391
  H       99.364    -251.105      79.700
  H       97.778    -253.072      78.419
  H       99.324    -254.862      79.012
  H       99.387    -253.585      81.809
  H      100.494    -255.682      81.877
  H      100.710    -250.586      72.784
  H      101.981    -251.275      73.772
  H      101.292    -255.427      80.309
  P       97.130    -256.234      79.509
  C       94.716    -255.696      78.708
  O       96.099    -255.435      78.579
  O       96.195    -257.031      80.530
  O       98.102    -257.128      78.812
  H       96.042    -257.941      80.213
  H       94.158    -254.877      78.249
  H       94.427    -255.773      79.761
  H       94.465    -256.626      78.191
  H      103.208    -250.934      83.999
  H      103.808    -252.115      82.859
  H      103.905    -252.429      84.575

 3  4  5  6  7  8  9  10  11  12  22  25  29  30  31  32 0
 6-311+G(2d,p)
 ****
 33  36  37 0
 6-311+G(2d,p)
 ****
 1  2  13  14  15  16  17  18  19  20  21  23  24  26 0
 3-21G
 ****
 27  28  34  35  38  39  40  41  42  43  44  45  46  47  48 0
 3-21G
 ****


