%nproc=1
%NoSave
%Mem=1900MB
#P OB98/GEN NMR

erre ene a

0 1
  C      222.208     292.119     232.036
  O      221.222     291.297     231.435
  H      222.690     292.716     231.258
  H      222.961     291.503     232.532
  H      221.741     292.792     232.762
  P      220.470     290.257     232.401
  C      222.209     288.366     231.927
  O      221.648     289.266     232.870
  C      223.432     287.682     232.518
  O      224.446     288.649     232.872
  C      223.161     286.901     233.803
  O      222.535     285.641     233.573
  C      224.579     286.736     234.320
  O      225.265     285.735     233.546
  C      225.148     288.151     234.043
  N      224.981     289.066     235.176
  C      226.145     289.407     235.883
  O      227.235     288.950     235.557
  N      226.028     290.238     236.972
  C      224.865     290.711     237.310
  N      224.818     291.530     238.402
  C      223.623     290.386     236.593
  C      223.747     289.569     235.547
  O      219.631     289.354     231.382
  O      219.668     290.855     233.509
  H      226.175     285.693     233.886
  H      219.240     288.577     231.864
  H      222.674     290.793     236.918
  H      222.879     289.284     234.966
  H      226.214     288.092     233.789
  H      224.626     286.422     235.365
  H      222.585     287.496     234.519
  H      223.861     287.027     231.744
  H      225.673     291.681     238.911
  H      222.497     288.946     231.033
  H      223.952     291.818     238.832
  H      221.472     287.620     231.631
  P      221.542     285.098     234.719
  C      223.422     283.681     235.837
  O      222.456     284.716     235.977
  O      221.084     283.672     234.150
  O      220.378     285.988     235.014
  H      220.163     283.477     234.402
  H      223.943     283.552     236.762
  H      224.119     283.945     235.069
  H      222.931     282.768     235.574

 6  7  8  9  10  11  12  13  14  15  16  26  30  31  32  33  35 0
 6-311+G(2d,p)
 ****
 37  38 0
 6-311+G(2d,p)
 ****
 1  2  3  4  5  17  18  19  20  21  22  23  24  25 0
 3-21G
 ****
 27  28  29  34  36  39  40  41  42  43  44  45  46 0
 3-21G
 ****


