%nproc=1
%NoSave
%Mem=1900MB
#P OB98/GEN NMR

erre ene a

0 1
  C     -123.007    -219.739     -60.039
  O     -124.293    -219.164     -60.196
  P     -125.368    -219.864     -61.156
  C     -125.712    -217.804     -62.711
  O     -125.267    -219.137     -62.579
  C     -126.951    -217.717     -63.609
  O     -127.414    -216.342     -63.607
  C     -126.703    -218.064     -65.080
  O     -127.963    -218.353     -65.697
  C     -126.162    -216.762     -65.620
  O     -126.271    -216.683     -67.044
  C     -126.962    -215.701     -64.828
  N     -126.146    -214.511     -64.514
  C     -125.844    -213.660     -65.577
  O     -126.287    -213.824     -66.713
  N     -124.938    -212.669     -65.297
  C     -124.291    -212.492     -64.107
  O     -123.289    -211.814     -63.965
  C     -124.835    -213.270     -62.975
  C     -125.704    -214.250     -63.228
  O     -126.764    -219.348     -60.558
  O     -125.301    -221.358     -61.195
  H     -125.952    -215.780     -67.298
  H     -127.140    -220.009     -59.954
  H     -124.611    -212.140     -66.107
  H     -124.455    -213.050     -61.987
  H     -126.080    -214.871     -62.415
  H     -127.846    -215.369     -65.389
  H     -125.092    -216.687     -65.375
  H     -126.008    -218.899     -65.231
  H     -127.746    -218.341     -63.196
  H     -124.898    -217.189     -63.118
  H     -125.958    -217.386     -61.728
  P     -128.058    -219.646     -66.643
  C     -127.655    -218.202     -68.739
  O     -127.201    -219.298     -67.961
  O     -129.430    -220.179     -66.895
  O     -127.122    -220.717     -65.894
  H     -127.336    -221.619     -66.212
  H     -126.798    -217.749     -69.240
  H     -128.147    -217.440     -68.118
  H     -128.360    -218.566     -69.496
  H     -122.428    -219.141     -59.367
  H     -122.517    -219.782     -60.989
  H     -123.105    -220.728     -59.642

 3  4  5  6  7  8  9  10  11  12  13  23  28  29  30  31  32 0
 6-311+G(2d,p)
 ****
 33  34 0
 6-311+G(2d,p)
 ****
 1  2  14  15  16  17  18  19  20  21  22  24  25  26  27 0
 3-21G
 ****
 35  36  37  38  39  40  41  42  43  44  45 0
 3-21G
 ****


