%nproc=1
%NoSave
%Mem=1900MB
#P OB98/GEN NMR

erre ene a

0 1
  C      377.200    -955.163     332.011
  O      376.583    -954.316     331.054
  P      377.187    -954.270     329.573
  C      375.547    -955.703     328.138
  O      376.783    -955.647     328.838
  C      375.775    -956.170     326.704
  O      376.429    -955.113     325.944
  C      376.651    -957.427     326.587
  O      376.175    -958.184     325.464
  C      378.014    -956.850     326.264
  O      378.901    -957.788     325.676
  C      377.608    -955.691     325.348
  N      378.670    -954.698     325.172
  C      379.029    -954.376     323.870
  O      378.510    -954.865     322.866
  N      380.071    -953.495     323.742
  C      380.833    -952.989     324.757
  O      381.818    -952.295     324.566
  C      380.402    -953.366     326.110
  C      379.358    -954.196     326.251
  O      378.761    -954.420     329.809
  O      376.854    -953.040     328.799
  H      378.570    -957.983     324.779
  H      379.200    -953.546     329.756
  H      380.340    -953.232     322.800
  H      380.971    -952.967     326.948
  H      379.042    -954.500     327.247
  H      377.311    -956.078     324.365
  H      378.480    -956.478     327.188
  H      376.656    -958.050     327.484
  H      374.796    -956.340     326.236
  H      375.098    -954.710     328.126
  H      374.864    -956.377     328.667
  P      376.322    -959.783     325.508
  C      373.985    -960.173     326.614
  O      375.391    -960.292     326.705
  O      377.808    -959.928     326.085
  O      376.126    -960.445     324.181
  H      377.998    -959.309     326.817
  H      373.633    -960.307     325.589
  H      373.683    -959.194     326.979
  H      373.524    -960.942     327.247
  H      376.684    -955.082     332.945
  H      378.221    -954.870     332.141
  H      377.161    -956.176     331.669

 3  4  5  6  7  8  9  10  11  12  13  23  28  29  30  31  32 0
 6-311+G(2d,p)
 ****
 33  34 0
 6-311+G(2d,p)
 ****
 1  2  14  15  16  17  18  19  20  21  22  24  25  26 0
 3-21G
 ****
 27  35  36  37  38  39  40  41  42  43  44  45 0
 3-21G
 ****


