%nproc=1
%NoSave
%Mem=1900MB
#P OB98/GEN NMR

erre ene a

0 1
  C       36.087      96.431      25.374
  O       35.681      97.610      26.070
  P       36.639      98.894      26.052
  C       37.423      98.105      28.376
  O       37.805      98.684      27.137
  C       38.463      98.407      29.463
  O       39.627      97.545      29.312
  C       38.966      99.856      29.408
  O       39.273     100.333      30.728
  C       40.271      99.731      28.646
  O       41.129     100.844      28.883
  C       40.784      98.395      29.180
  N       45.535      98.736      27.302
  C       44.877      99.478      28.220
  N       43.622      99.314      28.687
  C       43.039      98.246      28.118
  C       43.589      97.392      27.175
  C       44.900      97.675      26.756
  N       45.559      96.937      25.799
  N       42.688      96.409      26.817
  C       41.597      96.695      27.498
  N       41.770      97.775      28.321
  O       35.952     100.216      26.116
  O       37.429      98.726      24.666
  H       41.337     100.856      29.835
  H       37.498      99.599      24.230
  H       45.432     100.318      28.630
  H       40.658      96.167      27.421
  H       41.231      98.501      30.176
  H       40.069      99.676      27.570
  H       38.277     100.560      28.932
  H       38.028      98.188      30.444
  H       37.310      97.025      28.259
  H       46.451      97.284      25.479
  H       45.045      96.238      25.281
  H       36.432      98.482      28.657
  P       38.208     101.354      31.374
  C       38.830     103.279      29.719
  O       37.848     102.398      30.215
  O       38.654     101.937      32.673
  O       36.905     100.434      31.497
  H       36.664      99.956      30.686
  H       38.423     103.811      28.857
  H       39.720     102.730      29.400
  H       39.101     104.010      30.486
  H       35.339      95.675      25.487
  H       37.013      96.079      25.778
  H       36.214      96.656      24.336

 3  4  5  6  7  8  9  10  11  12  22  25  29  30  31  32 0
 6-311+G(2d,p)
 ****
 33  36  37 0
 6-311+G(2d,p)
 ****
 1  2  13  14  15  16  17  18  19  20  21  23  24  26 0
 3-21G
 ****
 27  28  34  35  38  39  40  41  42  43  44  45  46  47  48 0
 3-21G
 ****


