%nproc=1
%NoSave
%Mem=1900MB
#P OB98/GEN NMR

erre ene a

0 1
  C      -56.786    -593.499      81.374
  O      -56.868    -594.912      81.187
  P      -57.455    -595.763      82.422
  C      -59.503    -596.778      81.186
  O      -58.252    -597.022      81.827
  C      -59.972    -597.987      80.375
  O      -59.103    -598.154      79.223
  C      -59.970    -599.318      81.139
  O      -61.095    -600.091      80.717
  C      -58.716    -600.022      80.621
  O      -58.787    -601.428      80.782
  C      -58.726    -599.540      79.170
  N      -56.275    -601.615      75.256
  C      -57.622    -601.583      75.535
  N      -58.439    -602.209      74.648
  N      -58.137    -600.983      76.577
  C      -57.212    -600.370      77.354
  C      -55.844    -600.332      77.187
  C      -55.288    -601.030      76.045
  O      -54.098    -601.147      75.780
  N      -55.236    -599.610      78.184
  C      -56.230    -599.232      78.962
  N      -57.446    -599.676      78.507
  O      -58.603    -594.811      83.008
  O      -56.431    -596.087      83.464
  H      -59.615    -601.719      80.351
  H      -58.438    -594.632      83.952
  H      -55.928    -602.105      74.447
  H      -56.122    -598.656      79.879
  H      -59.473    -600.080      78.573
  H      -57.851    -599.642      81.169
  H      -58.114    -602.627      73.796
  H      -59.971    -599.215      82.226
  H      -59.437    -602.152      74.808
  H      -60.975    -597.766      79.995
  H      -59.403    -595.915      80.523
  H      -60.244    -596.527      81.957
  P      -62.092    -600.592      81.879
  C      -64.152    -599.257      81.003
  O      -63.564    -600.521      81.239
  O      -62.078    -599.375      82.925
  O      -61.705    -601.885      82.503
  H      -62.272    -599.697      83.818
  H      -63.434    -598.437      81.103
  H      -64.967    -599.098      81.725
  H      -64.564    -599.244      79.996
  H      -56.384    -593.045      80.492
  H      -56.149    -593.286      82.207
  H      -57.763    -593.107      81.563

 3  4  5  6  7  8  9  10  11  12  23  26  30  31  33  0
 6-311+G(2d,p)
 ****
 35  36  37  38 0
 6-311+G(2d,p)
 ****
 1  2  13  14  15  16  17  18  19  20  21  22  24  25  27  28  29 0
 3-21G
 ****
 32  34  39  40  41  42  43  44  45  46  47  48  49 0
 3-21G
 ****


