%nproc=1
%NoSave
%Mem=1900MB
#P OB98/GEN NMR

erre ene a

0 1
  C        5.717    -207.697     101.101
  O        4.744    -208.448     100.378
  P        5.246    -209.653      99.447
  C        6.776    -208.087      98.081
  O        5.725    -209.047      98.040
  C        7.654    -208.193      96.823
  O        8.241    -209.520      96.771
  C        6.907    -208.018      95.496
  O        6.770    -206.703      94.965
  C        7.818    -208.782      94.538
  O        8.902    -207.932      94.116
  C        8.364    -209.924      95.390
  N        7.626    -213.792      92.125
  C        8.398    -212.685      92.055
  N        8.536    -211.701      92.968
  C        7.787    -211.951      94.053
  C        6.954    -213.037      94.269
  C        6.884    -213.990      93.238
  N        6.092    -215.112      93.304
  N        6.338    -212.945      95.499
  C        6.778    -211.811      96.008
  N        7.665    -211.180      95.181
  O        4.338    -210.833      99.362
  O        6.639    -210.059     100.132
  H        9.399    -208.431      93.442
  H        6.743    -211.030     100.088
  H        8.977    -212.570      91.142
  H        6.480    -211.410      96.967
  H        9.425    -210.115      95.200
  H        7.297    -209.098      93.630
  H        5.923    -208.502      95.537
  H        8.469    -207.462      96.892
  H        7.387    -208.251      98.971
  H        6.064    -215.724      92.505
  H        5.487    -215.247      94.104
  H        6.317    -207.104      98.191
  P        5.396    -205.890      95.091
  C        4.757    -206.149      92.567
  O        5.114    -205.294      93.630
  O        5.351    -204.887      96.190
  O        4.311    -207.058      95.216
  H        4.197    -207.590      94.408
  H        4.404    -205.540      91.730
  H        3.957    -206.830      92.868
  H        5.631    -206.719      92.242
  H        5.228    -206.935     101.671
  H        6.401    -207.245     100.414
  H        6.252    -208.348     101.761

 3  4  5  6  7  8  9  10  11  12  22  25  29  30  31  32 0
 6-311+G(2d,p)
 ****
 33  36  37 0
 6-311+G(2d,p)
 ****
 1  2  13  14  15  16  17  18  19  20  21  23  24  26 0
 3-21G
 ****
 27  28  34  35  38  39  40  41  42  43  44  45  46  47  48 0
 3-21G
 ****


