%nproc=1
%NoSave
%Mem=1900MB
#P OB98/GEN NMR

erre ene a

0 1
  C       46.910    -370.701       5.694
  O       46.321    -369.603       6.354
  H       46.416    -370.878       4.734
  H       47.966    -370.481       5.513
  H       46.840    -371.598       6.316
  P       44.739    -369.692       6.612
  C       45.156    -368.917       9.052
  O       44.424    -368.717       7.851
  C       45.700    -367.583       9.564
  O       44.643    -366.599       9.601
  C       46.265    -367.626      10.975
  O       47.578    -368.178      11.008
  C       46.270    -366.140      11.319
  O       47.424    -365.514      10.734
  C       44.995    -365.638      10.636
  N       42.167    -362.328      13.355
  C       43.239    -362.146      12.553
  N       43.947    -363.071      11.867
  C       43.435    -364.301      12.066
  C       42.346    -364.633      12.859
  C       41.708    -363.582      13.533
  N       40.618    -363.778      14.359
  N       42.108    -365.990      12.807
  C       43.033    -366.478      12.000
  N       43.866    -365.483      11.530
  O       44.544    -371.155       7.240
  O       43.885    -369.496       5.408
  H       48.167    -365.666      11.354
  H       43.697    -371.524       6.930
  H       43.574    -361.117      12.431
  H       43.134    -367.514      11.726
  H       45.165    -364.678      10.130
  H       46.305    -365.957      12.399
  H       45.589    -368.158      11.659
  H       46.456    -367.233       8.853
  H       45.999    -369.591       8.856
  H       40.085    -362.976      14.655
  H       40.282    -364.730      14.486
  H       44.498    -369.374       9.791
  P       47.768    -369.571      11.770
  C       49.579    -370.051       9.975
  O       49.231    -370.098      11.355
  O       46.780    -370.562      10.981
  O       47.472    -369.549      13.236
  H       46.514    -371.296      11.567
  H       50.572    -370.429       9.844
  H       49.534    -369.039       9.630
  H       48.893    -370.650       9.413

 6  7  8  9  10  11  12  13  14  15  25  28  32  33  34  35 0
 6-311+G(2d,p)
 ****
 36  39  40 0
 6-311+G(2d,p)
 ****
 1  2  3  4  5  16  17  18  19  20  21  22  23  24 0
 3-21G
 ****
 26  27  29  30  31  37  38  41  42  43  44  45  46  47  48 0
 3-21G
 ****


