%nproc=1
%NoSave
%Mem=1900MB
#P OB98/GEN NMR

erre ene a

0 1
  C     -274.568      20.382    -394.021
  O     -275.504      19.633    -393.239
  P     -276.639      20.322    -392.344
  C     -278.416      18.667    -393.215
  O     -277.821      19.268    -392.076
  C     -278.954      17.267    -392.906
  O     -277.923      16.437    -392.336
  C     -280.106      17.234    -391.901
  O     -281.321      17.653    -392.495
  C     -280.071      15.770    -391.469
  O     -280.770      14.937    -392.410
  C     -278.565      15.464    -391.479
  N     -277.978      15.476    -390.144
  C     -278.090      14.289    -389.407
  O     -278.722      13.332    -389.862
  N     -277.525      14.238    -388.153
  C     -276.955      15.293    -387.657
  N     -276.402      15.171    -386.423
  C     -276.880      16.582    -388.371
  C     -277.409      16.598    -389.596
  O     -277.112      21.636    -392.867
  O     -275.966      20.499    -390.894
  H     -281.660      15.321    -392.512
  H     -276.345      21.293    -390.469
  H     -276.424      17.445    -387.914
  H     -277.393      17.506    -390.188
  H     -278.373      14.484    -391.940
  H     -280.536      15.615    -390.492
  H     -279.854      17.868    -391.039
  H     -279.271      16.812    -393.854
  H     -276.460      14.274    -385.964
  H     -277.652      18.588    -394.006
  H     -275.925      15.933    -385.940
  H     -279.224      19.314    -393.578
  P     -281.773      19.187    -392.372
  C     -283.081      19.547    -394.556
  O     -283.163      19.333    -393.159
  O     -280.737      20.203    -392.722
  O     -282.218      19.328    -390.843
  H     -282.037      20.240    -390.543
  H     -284.034      19.241    -395.015
  H     -282.259      18.975    -394.993
  H     -282.925      20.609    -394.758
  H     -273.910      19.709    -394.531
  H     -273.998      21.021    -393.379
  H     -275.096      20.976    -394.738

 3  4  5  6  7  8  9  10  11  12  13  23  27  28  29  30  32 0
 6-311+G(2d,p)
 ****
 34  35 0
 6-311+G(2d,p)
 ****
 1  2  14  15  16  17  18  19  20  21  22  24  25  26 0
 3-21G
 ****
 31  33  36  37  38  39  40  41  42  43  44  45  46 0
 3-21G
 ****


