%nproc=1
%NoSave
%Mem=1900MB
#P OB98/GEN NMR

erre ene a

0 1
  C      310.773     -87.714    -321.167
  O      311.380     -88.773    -321.881
  H      310.364     -88.112    -320.236
  H      309.957     -87.275    -321.749
  H      311.513     -86.947    -320.923
  P      311.958     -88.470    -323.348
  C      311.109     -89.008    -325.738
  O      310.882     -89.136    -324.342
  C      310.209     -89.969    -326.510
  O      310.406     -91.333    -326.072
  C      308.710     -89.722    -326.340
  O      308.245     -88.585    -327.050
  C      308.165     -91.023    -326.900
  O      308.244     -91.003    -328.338
  C      309.162     -92.049    -326.306
  N      308.682     -92.663    -325.073
  C      307.551     -93.480    -325.172
  O      307.003     -93.659    -326.260
  N      307.040     -94.050    -324.031
  C      307.598     -93.810    -322.885
  N      307.025     -94.359    -321.780
  C      308.803     -92.972    -322.733
  C      309.286     -92.431    -323.850
  O      313.380     -88.858    -323.591
  O      311.677     -86.909    -323.573
  H      307.590     -90.353    -328.651
  H      312.029     -86.669    -324.463
  H      309.223     -92.795    -321.753
  H      310.157     -91.787    -323.819
  H      309.384     -92.842    -327.031
  H      307.120     -91.203    -326.634
  H      308.446     -89.657    -325.282
  H      310.508     -89.926    -327.566
  H      306.176     -94.896    -321.917
  H      312.165     -89.217    -325.933
  H      307.221     -94.006    -320.850
  H      310.885     -87.987    -326.063
  P      306.906     -87.871    -326.528
  C      304.351     -88.332    -326.772
  O      305.673     -88.746    -327.078
  O      306.845     -86.537    -327.405
  O      306.847     -87.595    -325.057
  H      307.256     -85.787    -326.933
  H      303.653     -89.016    -327.208
  H      304.184     -87.352    -327.167
  H      304.219     -88.316    -325.710

 6  7  8  9  10  11  12  13  14  15  16  26  30  31  32  33  35 0
 6-311+G(2d,p)
 ****
 37  38 0
 6-311+G(2d,p)
 ****
 1  2  3  4  5  17  18  19  20  21  22  23  24  25 0
 3-21G
 ****
 27  28  29  34  36  39  40  41  42  43  44  45  46 0
 3-21G
 ****


