%nproc=1
%NoSave
%Mem=1900MB
#P OB98/GEN NMR

erre ene a

0 1
  C      303.172    -401.159     312.759
  O      303.862    -401.013     314.005
  P      303.366    -401.930     315.212
  C      304.434    -403.605     316.898
  O      304.645    -402.608     315.910
  C      305.662    -404.525     316.989
  O      305.945    -405.160     315.714
  C      306.943    -403.793     317.371
  O      306.949    -403.470     318.747
  C      307.985    -404.811     316.954
  O      308.115    -405.848     317.940
  C      307.376    -405.393     315.657
  N      311.288    -405.494     312.345
  C      311.022    -406.191     313.472
  N      309.969    -406.112     314.305
  C      309.098    -405.174     313.869
  C      309.226    -404.376     312.741
  C      310.383    -404.549     311.965
  N      310.641    -403.822     310.835
  N      308.132    -403.536     312.621
  C      307.377    -403.813     313.671
  N      307.915    -404.807     314.444
  O      302.646    -403.158     314.479
  O      302.435    -401.225     316.168
  H      308.750    -406.516     317.574
  H      301.673    -403.091     314.592
  H      311.776    -406.937     313.748
  H      306.443    -403.321     313.918
  H      307.513    -406.481     315.594
  H      308.989    -404.375     316.805
  H      307.049    -402.870     316.775
  H      305.444    -405.310     317.720
  H      303.549    -404.199     316.651
  H      311.540    -403.946     310.375
  H      310.019    -403.063     310.584
  H      304.240    -403.106     317.852
  P      306.931    -401.919     319.155
  C      307.230    -400.753     321.435
  O      307.508    -401.908     320.657
  O      305.361    -401.662     319.388
  O      307.605    -401.000     318.192
  H      304.961    -402.378     319.921
  H      307.665    -400.890     322.433
  H      306.152    -400.608     321.517
  H      307.702    -399.870     320.976
  H      303.596    -400.494     312.036
  H      302.137    -400.924     312.895
  H      303.267    -402.168     312.415

 3  4  5  6  7  8  9  10  11  12  22  25  29  30  31  32 0
 6-311+G(2d,p)
 ****
 33  36  37 0
 6-311+G(2d,p)
 ****
 1  2  13  14  15  16  17  18  19  20  21  23  24  26 0
 3-21G
 ****
 27  28  34  35  38  39  40  41  42  43  44  45  46  47  48 0
 3-21G
 ****


