%nproc=1
%NoSave
%Mem=1900MB
#P OB98/GEN NMR

erre ene a

0 1
  C     -351.401    -250.657     -42.559
  O     -351.824    -251.980     -42.820
  H     -351.049    -250.601     -41.525
  H     -352.237    -249.960     -42.677
  H     -350.580    -250.377     -43.224
  P     -352.395    -252.329     -44.277
  C     -354.726    -251.596     -43.412
  O     -353.726    -251.431     -44.404
  C     -356.086    -251.157     -43.956
  O     -356.019    -249.831     -44.528
  C     -356.644    -252.032     -45.074
  O     -357.128    -253.286     -44.631
  C     -357.754    -251.125     -45.580
  O     -358.865    -251.171     -44.670
  C     -357.050    -249.751     -45.551
  N     -356.466    -249.388     -46.844
  C     -357.363    -249.177     -47.897
  O     -358.572    -249.301     -47.730
  N     -356.859    -248.855     -49.141
  C     -355.578    -248.777     -49.313
  N     -355.137    -248.458     -50.565
  C     -354.596    -249.013     -48.233
  C     -355.100    -249.308     -47.040
  O     -352.571    -253.783     -44.584
  O     -351.404    -251.579     -45.287
  H     -359.149    -252.100     -44.612
  H     -351.708    -251.772     -46.208
  H     -353.536    -248.967     -48.443
  H     -354.446    -249.502     -46.199
  H     -357.749    -248.961     -45.243
  H     -358.130    -251.421     -46.564
  H     -355.902    -252.155     -45.878
  H     -356.779    -251.105     -43.102
  H     -355.827    -248.308     -51.283
  H     -354.441    -251.004     -42.537
  H     -354.151    -248.458     -50.810
  H     -354.794    -252.650     -43.122
  P     -356.502    -254.596     -45.334
  C     -358.450    -254.604     -47.079
  O     -357.051    -254.600     -46.840
  O     -357.294    -255.793     -44.625
  O     -355.015    -254.732     -45.216
  H     -356.753    -256.186     -43.910
  H     -358.632    -254.606     -48.133
  H     -358.889    -253.731     -46.643
  H     -358.884    -255.478     -46.640

 6  7  8  9  10  11  12  13  14  15  16  26  30  31  32  33  35 0
 6-311+G(2d,p)
 ****
 37  38 0
 6-311+G(2d,p)
 ****
 1  2  3  4  5  17  18  19  20  21  22  23  24  25 0
 3-21G
 ****
 27  28  29  34  36  39  40  41  42  43  44  45  46 0
 3-21G
 ****


