%nproc=1
%NoSave
%Mem=1900MB
#P OB98/GEN NMR

erre ene a

0 1
  C     -191.643     -23.289     128.198
  O     -191.700     -22.618     129.459
  P     -191.639     -23.486     130.805
  C     -190.569     -21.739     132.366
  O     -191.735     -22.491     132.063
  C     -190.580     -20.392     131.628
  O     -191.807     -19.660     131.916
  C     -189.410     -19.488     132.037
  O     -188.983     -18.683     130.926
  C     -190.041     -18.566     133.061
  O     -189.288     -17.366     133.225
  C     -191.430     -18.380     132.459
  N     -194.018     -14.342     134.255
  C     -193.166     -14.472     133.217
  N     -192.533     -15.583     132.784
  C     -192.868     -16.642     133.537
  C     -193.730     -16.667     134.622
  C     -194.318     -15.444     134.986
  N     -195.163     -15.306     136.065
  N     -193.823     -17.940     135.147
  C     -192.993     -18.659     134.424
  N     -192.417     -17.931     133.419
  O     -190.541     -24.492     130.878
  O     -193.076     -24.201     130.827
  H     -189.398     -16.837     132.413
  H     -192.964     -25.132     131.112
  H     -192.960     -13.560     132.663
  H     -192.760     -19.701     134.594
  H     -191.421     -17.658     131.632
  H     -190.093     -19.071     134.034
  H     -188.543     -20.019     132.440
  H     -190.563     -20.581     130.550
  H     -189.679     -22.309     132.089
  H     -195.444     -14.370     136.317
  H     -195.275     -16.083     136.700
  H     -190.509     -21.597     133.451
  P     -187.772     -19.282     130.046
  C     -188.646     -18.196     127.835
  O     -187.617     -18.296     128.794
  O     -187.924     -20.732     129.731
  O     -186.504     -18.954     130.967
  H     -186.452     -18.034     131.275
  H     -188.408     -17.387     127.143
  H     -189.605     -17.968     128.315
  H     -188.730     -19.127     127.270
  H     -191.695     -22.569     127.408
  H     -192.467     -23.967     128.117
  H     -190.725     -23.833     128.125

 3  4  5  6  7  8  9  10  11  12  22  25  29  30  31  32 0
 6-311+G(2d,p)
 ****
 33  36  37 0
 6-311+G(2d,p)
 ****
 1  2  13  14  15  16  17  18  19  20  21  23  24  26 0
 3-21G
 ****
 27  28  34  35  38  39  40  41  42  43  44  45  46  47  48 0
 3-21G
 ****


