%nproc=1
%NoSave
%Mem=1900MB
#P OB98/GEN NMR

erre ene a

0 1
  C      351.124    -808.574    1131.822
  O      351.539    -808.609    1133.179
  H      350.906    -809.592    1131.498
  H      351.932    -808.171    1131.198
  H      350.226    -807.966    1131.708
  P      351.886    -807.192    1133.858
  C      354.481    -807.400    1133.836
  O      353.284    -807.389    1134.616
  C      355.672    -806.960    1134.707
  O      355.358    -805.693    1135.316
  C      355.984    -807.902    1135.855
  O      356.706    -809.065    1135.429
  C      356.779    -806.999    1136.773
  O      358.161    -806.931    1136.381
  C      356.090    -805.650    1136.569
  N      354.241    -801.900    1139.514
  C      355.062    -801.872    1138.454
  N      355.503    -802.920    1137.700
  C      354.962    -804.084    1138.159
  C      354.109    -804.250    1139.230
  C      353.731    -803.091    1139.934
  N      352.908    -803.103    1141.032
  N      353.810    -805.594    1139.402
  C      354.465    -806.212    1138.458
  N      355.190    -805.337    1137.676
  O      350.821    -807.096    1135.049
  O      351.812    -806.018    1132.940
  H      358.157    -806.741    1135.423
  H      350.078    -806.520    1134.776
  H      355.442    -800.897    1138.157
  H      354.465    -807.291    1138.287
  H      356.817    -804.824    1136.508
  H      356.736    -807.366    1137.803
  H      355.053    -808.214    1136.361
  H      356.552    -806.827    1134.048
  H      354.373    -806.723    1132.984
  H      354.641    -808.421    1133.452
  H      352.735    -802.253    1141.517
  H      352.615    -803.997    1141.405
  P      355.973    -810.480    1135.534
  C      358.336    -811.531    1135.965
  O      357.094    -811.607    1135.274
  O      355.055    -810.538    1134.219
  O      355.180    -810.676    1136.780
  H      354.224    -811.012    1134.428
  H      358.957    -812.353    1135.675
  H      358.160    -811.572    1137.020
  H      358.825    -810.611    1135.720

 6  7  8  9  10  11  12  13  14  15  25  28  32  33  34  35 0
 6-311+G(2d,p)
 ****
 36  37  40 0
 6-311+G(2d,p)
 ****
 1  2  3  4  5  16  17  18  19  20  21  22  23  24 0
 3-21G
 ****
 26  27  29  30  31  38  39 41  42  43  44  45  46  47  48 0
 3-21G
 ****


