%nproc=1
%NoSave
%Mem=1900MB
#P OB98/GEN NMR

erre ene a

0 1
  C      391.726     101.553     -75.371
  O      390.682     102.499     -75.484
  H      392.063     101.531     -74.330
  H      392.571     101.840     -76.005
  H      391.373     100.554     -75.645
  P      390.011     102.730     -76.926
  C      390.584     105.104     -77.797
  O      391.010     103.753     -77.667
  C      390.711     105.832     -76.464
  O      391.965     105.517     -75.811
  C      390.706     107.356     -76.561
  O      389.432     107.909     -76.836
  C      391.199     107.708     -75.167
  O      390.131     107.523     -74.216
  C      392.316     106.654     -74.970
  N      393.637     107.163     -75.321
  C      394.367     107.791     -74.299
  O      393.891     107.900     -73.171
  N      395.611     108.306     -74.593
  C      396.073     108.231     -75.803
  N      397.308     108.765     -76.036
  C      395.332     107.599     -76.915
  C      394.140     107.093     -76.610
  O      388.569     103.127     -76.921
  O      390.296     101.368     -77.724
  H      389.421     108.152     -74.456
  H      389.891     101.457     -78.621
  H      395.750     107.587     -77.914
  H      393.537     106.615     -77.374
  H      392.337     106.299     -73.930
  H      391.535     108.741     -75.075
  H      391.452     107.702     -77.291
  H      389.905     105.470     -75.811
  H      397.792     109.193     -75.253
  H      389.545     105.103     -78.148
  H      397.711     108.816     -76.962
  H      391.206     105.620     -78.532
  P      389.400     109.401     -77.441
  C      388.687     111.403     -75.912
  O      389.640     110.387     -76.196
  O      387.858     109.608     -77.812
  O      390.313     109.640     -78.604
  H      387.708     109.454     -78.767
  H      389.005     111.961     -75.056
  H      387.736     110.955     -75.713
  H      388.603     112.058     -76.754

 6  7  8  9  10  11  12  13  14  15  16  26  30  31  32  33  35 0
 6-311+G(2d,p)
 ****
 37  38 0
 6-311+G(2d,p)
 ****
 1  2  3  4  5  17  18  19  20  21  22  23  24  25 0
 3-21G
 ****
 27  28  29  34  36  39  40  41  42  43  44  45  46 0
 3-21G
 ****


