%nproc=1
%NoSave
%Mem=1900MB
#P OB98/GEN NMR

erre ene a

0 1
  C      124.475      20.979      81.373
  O      123.450      20.260      82.035
  P      123.089      18.766      81.595
  C      121.330      19.733      79.999
  O      122.426      18.838      80.131
  C      120.951      19.941      78.533
  O      122.105      20.461      77.817
  C      120.496      18.668      77.802
  O      119.503      19.070      76.853
  C      121.758      18.231      77.070
  O      121.489      17.373      75.973
  C      122.329      19.593      76.683
  N      125.804      19.110      72.958
  C      124.449      19.074      72.937
  N      123.597      19.185      73.978
  C      124.269      19.354      75.131
  C      125.644      19.379      75.310
  C      126.433      19.271      74.150
  N      127.806      19.341      74.147
  N      125.949      19.508      76.653
  C      124.785      19.560      77.266
  N      123.740      19.534      76.381
  O      122.303      17.979      82.593
  O      124.512      18.087      81.314
  H      122.323      16.945      75.701
  H      124.733      17.468      82.040
  H      123.999      18.947      71.962
  H      124.638      19.613      78.336
  H      121.814      20.027      75.816
  H      122.418      17.700      77.761
  H      120.107      17.887      78.466
  H      120.169      20.709      78.488
  H      121.622      20.692      80.435
  H      128.264      19.382      73.246
  H      128.280      19.718      74.967
  H      120.470      19.350      80.561
  P      118.330      18.054      76.443
  C      118.967      18.004      73.963
  O      118.848      17.251      75.157
  O      116.972      18.666      76.316
  O      118.375      16.949      77.608
  H      117.533      16.449      77.607
  H      117.983      18.100      73.497
  H      119.640      17.475      73.276
  H      119.373      18.995      74.165
  H      124.566      21.952      81.808
  H      124.232      21.073      80.335
  H      125.402      20.455      81.476

 3  4  5  6  7  8  9  10  11  12  22  25  29  30  31  32 0
 6-311+G(2d,p)
 ****
 33  36  37 0
 6-311+G(2d,p)
 ****
 1  2  13  14  15  16  17  18  19  20  21  23  24  26 0
 3-21G
 ****
 27  28  34  35  38  39  40  41  42  43  44  45  46  47  48 0
 3-21G
 ****


