%nproc=1
%NoSave
%Mem=1900MB
#P OB98/GEN NMR

erre ene a

0 1
  C      415.015    -178.420     -44.286
  O      416.110    -177.529     -44.184
  H      414.479    -178.210     -45.216
  H      414.329    -178.280     -43.444
  H      415.375    -179.452     -44.310
  P      417.010    -177.645     -42.861
  C      416.551    -177.266     -40.354
  O      416.050    -177.130     -41.679
  C      416.111    -176.078     -39.492
  O      416.957    -174.941     -39.812
  C      414.658    -175.659     -39.728
  O      414.073    -175.266     -38.483
  C      414.779    -174.446     -40.636
  O      413.659    -173.571     -40.524
  C      416.104    -173.839     -40.167
  N      417.789    -169.170     -41.352
  C      417.343    -169.701     -40.196
  N      416.925    -170.969     -39.963
  C      417.050    -171.719     -41.071
  C      417.484    -171.314     -42.323
  C      417.863    -169.964     -42.447
  N      418.295    -169.407     -43.631
  N      417.424    -172.365     -43.218
  C      416.979    -173.392     -42.513
  N      416.720    -173.044     -41.216
  O      418.351    -176.991     -42.930
  O      417.032    -179.228     -42.622
  H      413.695    -173.132     -39.646
  H      416.146    -179.620     -42.748
  H      417.309    -169.023     -39.342
  H      416.810    -174.395     -42.900
  H      415.982    -173.189     -39.291
  H      414.851    -174.773     -41.680
  H      414.063    -176.450     -40.183
  H      416.293    -176.323     -38.440
  H      417.644    -177.325     -40.367
  H      418.560    -168.433     -43.628
  H      418.372    -169.990     -44.452
  H      416.156    -178.199     -39.936
  P      413.254    -176.365     -37.648
  C      411.129    -177.800     -37.941
  O      411.921    -176.737     -38.459
  O      413.060    -176.068     -36.198
  O      414.146    -177.685     -37.841
  H      414.141    -178.200     -37.008
  H      410.275    -177.947     -38.569
  H      410.806    -177.554     -36.951
  H      411.711    -178.698     -37.914

 6  7  8  9  10  11  12  13  14  15  25  28  32  33  34  35 0
 6-311+G(2d,p)
 ****
 36  39  40 0
 6-311+G(2d,p)
 ****
 1  2  3  4  5  16  17  18  19  20  21  22  23  24 0
 3-21G
 ****
 26  27  29  30  31  37  38  41  42  43  44  45  46  47 0
 3-21G
 ****
 48 0
 3-21G
 ****


