%nproc=1
%NoSave
%Mem=1900MB
#P OB98/GEN NMR

erre ene a

0 1
  C     -149.441     102.511      82.638
  O     -150.616     102.624      81.829
  P     -152.023     102.841      82.568
  C     -154.140     101.396      83.015
  O     -152.947     101.564      82.266
  C     -155.138     100.527      82.241
  O     -155.671     101.225      81.090
  C     -154.534      99.236      81.702
  O     -154.505      98.216      82.689
  C     -155.539      98.874      80.618
  O     -156.696      98.248      81.209
  C     -155.908     100.250      80.043
  N     -155.769     100.075      74.987
  C     -156.735      99.629      75.866
  N     -157.831      99.058      75.319
  N     -156.638      99.731      77.167
  C     -155.497     100.337      77.574
  C     -154.465     100.823      76.800
  C     -154.580     100.690      75.363
  O     -153.748     101.054      74.533
  N     -153.475     101.368      77.573
  C     -153.909     101.231      78.811
  N     -155.128     100.598      78.867
  O     -152.713     103.990      81.691
  O     -151.908     103.234      84.004
  H     -157.346      98.128      80.491
  H     -153.332     104.504      82.242
  H     -155.892      99.966      73.995
  H     -153.385     101.576      79.695
  H     -156.966     100.316      79.760
  H     -155.132      98.163      79.893
  H     -157.993      98.989      74.325
  H     -153.546      99.415      81.257
  H     -158.566      98.752      75.948
  H     -155.972     100.281      82.913
  H     -154.590     102.369      83.238
  H     -153.892     100.953      83.984
  P     -153.348      98.286      83.801
  C     -150.788      97.849      83.756
  O     -151.968      98.104      83.015
  O     -153.533      96.905      84.592
  O     -153.433      99.463      84.717
  H     -153.271      97.018      85.525
  H     -149.985      97.596      83.060
  H     -150.935      97.018      84.448
  H     -150.496      98.746      84.314
  H     -148.587     102.371      82.009
  H     -149.540     101.673      83.296
  H     -149.317     103.404      83.214

 3  4  5  6  7  8  9  10  11  12  23  26  30  31 0
 6-311+G(2d,p)
 ****
 33  35  36  37  38 0
 6-311+G(2d,p)
 ****
 1  2  13  14  15  16  17  18  19  20  21  22  24  25 0
 3-21G
 ****
 27  28  29  32  34  39  40  41  42  43  44  45  46  47  48  49 0
 3-21G
 ****


