%nproc=1
%NoSave
%Mem=1900MB
#P OB98/GEN NMR

erre ene a

0 1
  C      -64.760      24.434      34.632
  O      -63.426      24.031      34.339
  P      -62.994      23.962      32.796
  C      -62.703      26.532      32.350
  O      -62.102      25.256      32.480
  C      -61.638      27.642      32.307
  O      -61.005      27.723      33.610
  C      -60.499      27.415      31.318
  O      -59.847      28.665      31.075
  C      -59.579      26.512      32.109
  O      -58.263      26.494      31.563
  C      -59.704      27.084      33.540
  N      -59.583      26.059      34.599
  C      -58.403      25.322      34.678
  O      -57.450      25.470      33.915
  N      -58.357      24.361      35.652
  C      -59.334      24.097      36.563
  O      -59.276      23.166      37.357
  C      -60.496      24.994      36.526
  C      -60.572      25.909      35.558
  O      -64.362      24.226      32.013
  O      -62.362      22.669      32.407
  H      -58.007      27.432      31.416
  H      -64.695      23.394      31.628
  H      -57.535      23.774      35.676
  H      -61.264      24.859      37.278
  H      -61.436      26.569      35.505
  H      -58.932      27.841      33.731
  H      -59.956      25.486      32.082
  H      -60.803      26.963      30.370
  H      -62.129      28.604      32.118
  H      -63.396      26.702      33.178
  H      -63.299      26.564      31.431
  P      -60.088      29.376      29.658
  C      -62.295      30.676      29.873
  O      -60.884      30.734      29.964
  O      -60.664      28.517      28.583
  O      -58.625      29.909      29.272
  H      -58.582      30.089      28.316
  H      -62.722      31.411      30.561
  H      -62.673      29.683      30.133
  H      -62.600      30.924      28.852
  H      -64.908      24.435      35.692
  H      -65.447      23.751      34.177
  H      -64.928      25.418      34.248

 3  4  5  6  7  8  9  10  11  12  13  23  28  29  30  31  32 0
 6-311+G(2d,p)
 ****
 33  34 0
 6-311+G(2d,p)
 ****
 1  2  14  15  16  17  18  19  20  21  22  24  25  26  27 0
 3-21G
 ****
 35  36  37  38  39  40  41  42  43  44  45 0
 3-21G
 ****


