%nproc=1
%NoSave
%Mem=1900MB
#P OB98/GEN NMR

erre ene a

0 1
  C      368.156    -765.181     254.935
  O      368.534    -765.532     256.271
  P      367.878    -766.872     256.876
  C      365.737    -765.901     257.978
  O      366.283    -766.677     256.925
  C      364.216    -766.040     258.074
  O      363.855    -767.404     258.447
  C      363.573    -765.108     259.109
  O      362.281    -764.745     258.613
  C      363.396    -766.002     260.317
  O      362.401    -765.484     261.208
  C      363.040    -767.336     259.642
  N      363.248    -768.507     260.506
  C      362.134    -768.994     261.188
  O      361.042    -768.406     261.109
  N      362.275    -770.102     261.977
  C      363.439    -770.645     262.121
  N      363.525    -771.742     262.924
  C      364.663    -770.123     261.467
  C      364.488    -769.061     260.677
  O      368.316    -766.826     258.417
  O      368.348    -768.119     256.210
  H      361.647    -765.147     260.670
  H      368.694    -767.687     258.675
  H      365.625    -770.599     261.627
  H      365.326    -768.610     260.152
  H      361.985    -767.339     259.331
  H      364.344    -766.088     260.867
  H      364.155    -764.210     259.306
  H      363.793    -765.856     257.086
  H      362.663    -772.070     263.350
  H      365.982    -764.841     257.823
  H      364.378    -772.241     263.105
  H      366.222    -766.179     258.916
  P      362.194    -763.642     257.453
  C      361.987    -761.492     258.855
  O      362.851    -762.326     258.099
  O      360.633    -763.261     257.490
  O      362.636    -764.007     256.078
  H      360.435    -762.634     256.773
  H      362.587    -760.712     259.337
  H      361.478    -762.064     259.626
  H      361.257    -761.011     258.193
  H      368.654    -764.278     254.649
  H      367.097    -765.033     254.891
  H      368.434    -765.969     254.267

 3  4  5  6  7  8  9  10  11  12  13  21  23  27  28  29  30  32 0
 6-311+G(2d,p)
 ****
 34  35 0
 6-311+G(2d,p)
 ****
 1  2  14  15  16  17  18  19  20  22  24  25  26 0
 3-21G
 ****
 31  33  36  37  38  39  40  41  42  43  44  45  46 0
 3-21G
 ****


