%nproc=1
%NoSave
%Mem=1900MB
#P OB98/GEN NMR

erre ene a

0 1
  C     -425.893    -519.256    -339.294
  O     -425.542    -520.427    -338.576
  H     -426.615    -519.520    -340.062
  H     -425.003    -518.836    -339.778
  H     -426.333    -518.516    -338.620
  P     -424.450    -520.252    -337.414
  C     -425.034    -522.664    -336.655
  O     -424.007    -521.737    -336.991
  C     -424.454    -524.078    -336.562
  O     -423.165    -524.052    -335.903
  C     -425.321    -525.064    -335.801
  O     -426.353    -525.593    -336.614
  C     -424.299    -526.112    -335.380
  O     -424.019    -527.020    -336.458
  C     -423.070    -525.246    -335.067
  N     -420.064    -525.380    -331.009
  C     -419.842    -525.807    -332.293
  N     -418.662    -526.417    -332.525
  N     -420.704    -525.681    -333.274
  C     -421.859    -525.079    -332.880
  C     -422.197    -524.598    -331.645
  C     -421.220    -524.734    -330.580
  O     -421.338    -524.315    -329.427
  N     -423.452    -524.040    -331.643
  C     -423.876    -524.234    -332.881
  N     -422.950    -524.869    -333.670
  O     -425.320    -519.761    -336.160
  O     -423.337    -519.305    -337.714
  H     -424.831    -527.515    -336.684
  H     -424.765    -519.188    -335.593
  H     -419.365    -525.501    -330.304
  H     -424.852    -523.910    -333.250
  H     -422.128    -525.745    -335.327
  H     -424.650    -526.705    -334.539
  H     -418.126    -526.845    -331.780
  H     -425.757    -524.589    -334.889
  H     -418.499    -526.757    -333.469
  H     -424.283    -524.431    -337.591
  H     -425.809    -522.646    -337.435
  H     -425.473    -522.373    -335.704
  P     -427.647    -526.197    -335.900
  C     -428.260    -526.591    -338.399
  O     -428.490    -526.963    -337.046
  O     -428.535    -524.914    -335.586
  O     -427.368    -527.009    -334.672
  H     -429.227    -525.122    -334.920
  H     -428.883    -527.178    -339.041
  H     -427.233    -526.761    -338.646
  H     -428.491    -525.554    -338.528

 6  7  8  9  10  11  12  13  14  15  26  29  33  34 0
 6-311+G(2d,p)
 ****
 36  38  39  40  41 0
 6-311+G(2d,p)
 ****
 1  2  3  4  5  16  17  18  19  20  21  22  23  24  25 0
 3-21G
 ****
 27  28  30  31  32  35  37  42  43  44  45  46  47 0
 3-21G
 ****
 48  49 0
 3-21G
 ****


