%nproc=1
%NoSave
%Mem=1900MB
#P OB98/GEN NMR

erre ene a

0 1
  C       66.622    -204.151     -31.678
  O       67.698    -203.737     -32.498
  H       65.747    -203.521     -31.857
  H       66.367    -205.185     -31.924
  H       66.909    -204.098     -30.623
  P       68.205    -202.226     -32.317
  C       66.229    -200.793     -33.218
  O       67.485    -201.398     -33.490
  C       65.575    -200.376     -34.531
  O       64.286    -199.773     -34.275
  C       66.373    -199.336     -35.312
  O       67.416    -199.913     -36.078
  C       65.287    -198.760     -36.204
  O       65.013    -199.668     -37.286
  C       64.091    -198.702     -35.239
  N       62.704    -193.788     -35.612
  C       62.639    -194.813     -36.491
  N       63.010    -196.097     -36.306
  C       63.481    -196.283     -35.064
  C       63.601    -195.336     -34.059
  C       63.193    -194.029     -34.374
  N       63.287    -192.974     -33.493
  N       64.151    -195.901     -32.924
  C       64.338    -197.168     -33.235
  N       63.978    -197.440     -34.528
  O       69.732    -202.275     -32.797
  O       68.039    -201.639     -30.954
  H       65.872    -200.004     -37.601
  H       70.201    -201.466     -32.520
  H       62.239    -194.568     -37.470
  H       64.738    -197.920     -32.568
  H       63.134    -198.878     -35.744
  H       65.571    -197.804     -36.651
  H       66.752    -198.546     -34.655
  H       65.407    -201.278     -35.134
  H       66.385    -199.911     -32.588
  H       63.109    -192.052     -33.858
  H       63.783    -193.111     -32.624
  H       65.589    -201.505     -32.688
  P       68.851    -199.191     -36.037
  C       68.168    -196.708     -36.380
  O       68.727    -197.881     -36.959
  O       69.769    -200.170     -36.908
  O       69.399    -198.973     -34.664
  H       70.689    -200.165     -36.583
  H       68.150    -195.924     -37.108
  H       68.763    -196.405     -35.544
  H       67.170    -196.913     -36.052

 6  7  8  9  10  11  12  13  14  15  25  28  32  33  34  35 0
 6-311+G(2d,p)
 ****
 36  39  40 0
 6-311+G(2d,p)
 ****
 1  2  3  4  5  16  17  18  19  20  21  22  23  24 0
 3-21G
 ****
 26  27  29  30  31  37  38  41  42  43  44  45  46  47 0
 3-21G
 ****
 48 0
 3-21G
 ****


