%nproc=1
%NoSave
%Mem=1900MB
#P OB98/GEN NMR

erre ene a

0 1
  C      -24.901      96.367      62.937
  O      -24.309      95.799      64.087
  P      -23.576      94.378      64.025
  C      -21.516      95.257      62.781
  O      -22.622      94.366      62.738
  C      -20.310      94.684      62.038
  O      -19.345      95.741      61.798
  C      -19.592      93.554      62.786
  O      -19.177      92.594      61.808
  C      -18.389      94.253      63.390
  O      -17.336      93.350      63.698
  C      -18.075      95.277      62.294
  N      -17.258      96.378      62.780
  C      -15.917      96.392      62.390
  O      -15.441      95.433      61.780
  N      -15.151      97.482      62.718
  C      -15.630      98.380      63.523
  N      -14.862      99.477      63.766
  C      -16.959      98.266      64.152
  C      -17.729      97.277      63.709
  O      -24.478      93.195      64.138
  O      -22.535      94.419      65.243
  H      -22.670      93.631      65.804
  H      -17.028      92.928      62.869
  H      -17.263      98.971      64.912
  H      -18.733      97.125      64.089
  H      -17.556      94.796      61.455
  H      -18.684      94.760      64.316
  H      -20.229      93.062      63.527
  H      -20.651      94.328      61.058
  H      -13.974      99.539      63.285
  H      -21.246      95.416      63.827
  H      -15.260     100.350      64.107
  H      -21.802      96.227      62.360
  P      -19.095      91.050      62.243
  C      -21.617      90.481      62.018
  O      -20.508      90.642      62.878
  O      -18.155      91.131      63.544
  O      -18.501      90.107      61.248
  H      -17.711      90.272      63.668
  H      -22.501      90.273      62.625
  H      -21.452      89.640      61.340
  H      -21.794      91.393      61.442
  H      -25.335      97.312      63.189
  H      -25.662      95.712      62.567
  H      -24.154      96.507      62.184

 3  4  5  6  7  8  9  10  11  12  13  24  27  28  29  30  32 0
 6-311+G(2d,p)
 ****
 34  35 0
 6-311+G(2d,p)
 ****
 1  2  14  15  16  17  18  19  20  21  22  23  25  26 0
 3-21G
 ****
 31  33  36  37  38  39  40  41  42  43  44  45  46 0
 3-21G
 ****


