%nproc=1
%NoSave
%Mem=1900MB
#P OB98/GEN NMR

erre ene a

0 1
  C      375.062     107.053     118.009
  O      375.949     108.067     117.578
  H      375.632     106.132     118.159
  H      374.294     106.870     117.252
  H      374.594     107.333     118.956
  P      375.351     109.514     117.247
  C      375.682     110.325     119.676
  O      374.756     110.078     118.627
  C      374.944     110.538     120.995
  O      373.978     111.598     120.864
  C      374.174     109.315     121.488
  O      375.043     108.409     122.148
  C      373.187     109.972     122.439
  O      373.855     110.314     123.670
  C      372.818     111.255     121.670
  N      368.004     109.703     121.256
  C      368.902     109.536     122.293
  N      368.463     108.829     123.357
  N      370.120     110.009     122.280
  C      370.443     110.631     121.125
  C      369.647     110.844     120.024
  C      368.277     110.376     120.075
  O      367.444     110.523     119.187
  N      370.349     111.432     119.002
  C      371.552     111.623     119.506
  N      371.666     111.146     120.791
  O      374.390     109.582     116.099
  O      376.641     110.430     117.006
  H      374.329     109.516     123.969
  H      376.888     110.449     116.062
  H      367.079     109.310     121.318
  H      372.375     112.101     118.990
  H      372.623     112.098     122.344
  H      372.349     109.325     122.695
  H      367.595     108.318     123.362
  H      373.618     108.835     120.676
  H      369.128     108.648     124.100
  H      375.680     110.867     121.742
  H      376.254     111.219     119.409
  H      376.377     109.483     119.777
  P      374.563     106.931     122.557
  C      376.151     105.841     120.828
  O      374.811     106.030     121.252
  O      373.185     106.852     123.115
  O      375.703     106.405     123.544
  H      375.559     106.686     124.481
  H      376.165     105.225     119.953
  H      376.708     105.366     121.608
  H      376.591     106.790     120.603

 6  7  8  9  10  11  12  13  14  15  26  29  33  34 0
 6-311+G(2d,p)
 ****
 36  38  39  40  41 0
 6-311+G(2d,p)
 ****
 1  2  3  4  5  16  17  18  19  20  21  22  23  24  25 0
 3-21G
 ****
 27  28  30  31  32  35  37  42  43  44  45  46  47 0
 3-21G
 ****
 48  49 0
 3-21G
 ****


