%nproc=1
%NoSave
%Mem=1900MB
#P OB98/GEN NMR

erre ene a

0 1
  C      -55.356    -186.036     228.174
  O      -55.047    -187.008     229.150
  H      -54.636    -185.217     228.255
  H      -56.360    -185.637     228.353
  H      -55.298    -186.461     227.170
  P      -55.860    -188.392     229.072
  C      -57.803    -188.827     230.739
  O      -57.338    -188.084     229.622
  C      -57.142    -188.329     232.023
  O      -57.270    -186.887     232.127
  C      -57.738    -188.907     233.303
  O      -57.209    -190.196     233.598
  C      -57.274    -187.873     234.317
  O      -55.882    -188.084     234.626
  C      -57.452    -186.563     233.535
  N      -60.340    -183.791     236.653
  C      -59.048    -184.261     236.819
  N      -58.445    -183.960     237.991
  N      -58.410    -184.969     235.925
  C      -59.140    -185.207     234.811
  C      -60.425    -184.795     234.530
  C      -61.117    -184.005     235.521
  O      -62.252    -183.544     235.413
  N      -60.828    -185.219     233.287
  C      -59.801    -185.909     232.827
  N      -58.750    -185.933     233.719
  O      -55.206    -189.272     230.243
  O      -55.795    -189.101     227.761
  H      -55.743    -189.046     234.658
  H      -55.184    -190.206     229.957
  H      -60.789    -183.258     237.380
  H      -59.760    -186.396     231.863
  H      -56.694    -185.814     233.799
  H      -57.823    -187.927     235.258
  H      -58.898    -183.457     238.741
  H      -58.837    -188.915     233.267
  H      -57.490    -184.264     238.123
  H      -56.069    -188.555     231.958
  H      -57.562    -189.889     230.592
  H      -58.895    -188.718     230.811
  P      -58.165    -191.232     234.365
  C      -57.764    -191.481     236.923
  O      -58.284    -190.675     235.871
  O      -57.240    -192.529     234.520
  O      -59.453    -191.533     233.677
  H      -57.798    -193.321     234.631
  H      -57.913    -190.985     237.859
  H      -56.717    -191.640     236.767
  H      -58.270    -192.424     236.934

 6  7  8  9  10  11  12  13  14  15  26  29  33  34 0
 6-311+G(2d,p)
 ****
 36  38  39  40  41 0
 6-311+G(2d,p)
 ****
 1  2  3  4  5  16  17  18  19  20  21  22  23  24  25 0
 3-21G
 ****
 27  28  30  31  32  35  37  42  43  44  45  46  47 0
 3-21G
 ****
 48  49 0
 3-21G
 ****


