%nproc=1
%NoSave
%Mem=1900MB
#P OB98/GEN NMR

erre ene a

0 1
  C       46.878      29.699      17.760
  O       48.186      30.219      17.933
  P       49.332      29.346      18.624
  C       49.667      28.312      21.015
  O       49.024      29.257      20.188
  C       49.677      28.840      22.457
  O       50.516      30.008      22.554
  C       48.275      29.225      22.922
  O       47.668      28.151      23.623
  C       48.537      30.442      23.787
  O       48.957      30.043      25.105
  C       49.707      31.117      23.033
  N       49.385      31.979      21.879
  C       48.617      33.125      22.070
  O       48.202      33.495      23.164
  N       48.315      33.834      20.933
  C       48.738      33.534      19.670
  O       48.271      34.024      18.649
  C       49.757      32.485      19.578
  C       50.012      31.752      20.662
  O       50.609      30.306      18.553
  O       49.594      28.016      17.996
  H       48.248      29.489      25.478
  H       51.181      30.063      17.800
  H       47.643      34.586      21.045
  H       50.225      32.307      18.619
  H       50.736      30.943      20.607
  H       50.325      31.709      23.717
  H       47.631      31.031      23.924
  H       47.661      29.530      22.064
  H       50.097      28.067      23.114
  H       50.691      28.142      20.665
  H       49.145      27.351      20.967
  P       46.072      28.038      23.669
  C       44.174      29.582      24.431
  O       45.574      29.388      24.377
  O       45.531      26.772      24.247
  O       45.648      28.219      22.133
  H       45.496      27.341      21.725
  H       43.963      30.431      25.086
  H       43.677      28.692      24.830
  H       43.793      29.804      23.431
  H       46.263      30.432      17.282
  H       46.463      29.453      18.715
  H       46.921      28.819      17.153

 3  4  5  6  7  8  9  10  11  12  13  23  28  29  30  31  32 0
 6-311+G(2d,p)
 ****
 33  34 0
 6-311+G(2d,p)
 ****
 1  2  14  15  16  17  18  19  20  21  22  24  25  26  27 0
 3-21G
 ****
 35  36  37  38  39  40  41  42  43  44  45 0
 3-21G
 ****


