%nproc=1
%NoSave
%Mem=1900MB
#P OB98/GEN NMR

erre ene a

0 1
  C      183.122    -620.028     356.545
  O      183.990    -620.462     355.511
  P      183.375    -621.032     354.143
  C      185.410    -620.255     352.764
  O      184.594    -621.364     353.160
  C      186.615    -620.737     351.967
  O      187.620    -621.294     352.849
  C      186.302    -621.835     350.956
  O      185.651    -621.303     349.816
  C      187.680    -622.417     350.706
  O      188.402    -621.614     349.750
  C      188.341    -622.297     352.102
  N      191.231    -625.562     354.745
  C      191.552    -624.482     353.999
  N      190.716    -623.685     353.288
  C      189.457    -624.115     353.395
  C      188.986    -625.215     354.086
  C      189.950    -625.958     354.801
  N      189.626    -627.023     355.630
  N      187.619    -625.360     353.913
  C      187.274    -624.353     353.124
  N      188.332    -623.540     352.828
  O      182.282    -620.206     353.542
  O      182.839    -622.485     354.551
  H      187.896    -621.635     348.907
  H      181.873    -622.529     354.397
  H      192.616    -624.213     353.970
  H      186.277    -624.172     352.755
  H      189.375    -621.954     352.033
  H      187.651    -623.438     350.314
  H      185.668    -622.605     351.429
  H      187.060    -619.859     351.460
  H      185.734    -619.727     353.664
  H      190.366    -627.369     356.211
  H      188.652    -627.132     355.925
  H      184.799    -619.561     352.169
  P      184.101    -621.621     349.567
  C      183.753    -619.217     348.711
  O      183.600    -620.603     348.426
  O      183.244    -621.676     350.782
  O      184.108    -623.029     348.800
  H      183.315    -623.531     349.037
  H      182.951    -618.898     349.392
  H      183.670    -618.659     347.769
  H      184.721    -619.010     349.160
  H      183.701    -619.682     357.376
  H      182.503    -620.843     356.857
  H      182.507    -619.231     356.183

 3  4  5  6  7  8  9  10  11  12  22  25  29  30  31  32 0
 6-311+G(2d,p)
 ****
 33  36  37 0
 6-311+G(2d,p)
 ****
 1  2  13  14  15  16  17  18  19  20  21  23  24  26 0
 3-21G
 ****
 27  28  34  35  38  39  40  41  42  43  44  45  46  47  48 0
 3-21G
 ****


