%nproc=1
%NoSave
%Mem=1900MB
#P OB98/GEN NMR

erre ene a

0 1
  C      551.060     553.783      99.581
  O      550.769     552.902      98.498
  P      549.259     552.384      98.311
  C      547.065     553.696      98.652
  O      548.332     553.668      98.002
  C      546.288     554.958      98.272
  O      546.926     556.150      98.784
  C      546.197     555.173      96.758
  O      545.264     554.278      96.191
  C      545.816     556.648      96.699
  O      544.406     556.821      96.893
  C      546.593     557.235      97.891
  N      547.773     557.987      97.491
  C      547.709     559.380      97.636
  O      546.674     559.911      98.062
  N      548.817     560.128      97.301
  C      549.882     559.542      96.842
  N      550.939     560.335      96.525
  C      549.986     558.076      96.652
  C      548.907     557.377      96.979
  O      548.756     551.466      99.368
  O      549.311     551.651      96.877
  H      543.959     556.308      96.201
  H      548.644     550.933      96.874
  H      550.903     557.633      96.271
  H      548.900     556.291      96.865
  H      545.950     557.922      98.460
  H      546.053     557.085      95.730
  H      547.179     555.025      96.307
  H      545.283     554.885      98.706
  H      550.834     561.332      96.653
  H      547.211     553.667      99.745
  H      551.824     559.966      96.219
  H      546.503     552.794      98.386
  P      545.821     553.155      95.191
  C      546.838     550.777      95.426
  O      546.164     551.862      96.064
  O      547.268     553.720      94.775
  O      544.974     552.907      93.978
  H      547.466     553.467      93.869
  H      547.270     550.135      96.206
  H      547.631     551.129      94.776
  H      546.113     550.188      94.867
  H      552.100     554.034      99.567
  H      550.821     553.302     100.506
  H      550.477     554.675      99.482

 3  4  5  6  7  8  9  10  11  12  13  23  27  28  29  30  32 0
 6-311+G(2d,p)
 ****
 34  35 0
 6-311+G(2d,p)
 ****
 1  2  14  15  16  17  18  19  20  21  22  24  25  26 0
 3-21G
 ****
 31  33  36  37  38  39  40  41  42  43  44  45  46 0
 3-21G
 ****


