%nproc=1
%NoSave
%Mem=1900MB
#P OB98/GEN NMR

erre ene a

0 1
  C      267.681     102.340     729.261
  O      268.421     101.225     728.805
  H      268.162     103.258     728.900
  H      267.662     102.364     730.353
  H      266.661     102.307     728.868
  P      267.915      99.756     729.194
  C      269.434      99.642     731.305
  O      269.155      99.122     730.007
  C      270.444      98.765     732.016
  O      269.926      97.435     732.258
  C      271.750      98.529     731.256
  O      272.601      99.660     731.231
  C      272.328      97.386     732.063
  O      272.865      97.881     733.294
  C      271.063      96.519     732.302
  N      270.906      95.451     731.316
  C      271.602      94.258     731.559
  O      272.298      94.147     732.561
  N      271.512      93.239     730.637
  C      270.794      93.403     729.560
  N      270.742      92.355     728.696
  C      270.067      94.647     729.268
  C      270.165      95.622     730.164
  O      267.387      98.917     728.074
  O      266.854      99.996     730.370
  H      273.531      98.557     733.064
  H      266.500      99.114     730.645
  H      269.515      94.746     728.335
  H      269.652      96.570     729.995
  H      271.076      96.072     733.299
  H      273.135      96.857     731.550
  H      271.539      98.174     730.231
  H      270.645      99.211     733.006
  H      271.255      91.511     728.924
  H      268.487      99.698     731.858
  H      270.278      92.410     727.789
  H      269.844     100.653     731.213
  P      273.424      99.937     729.864
  C      275.130      97.989     730.189
  O      274.905      99.377     730.105
  O      273.591     101.528     729.851
  O      272.750      99.418     728.624
  H      272.911     101.941     729.280
  H      276.172      97.806     730.351
  H      274.823      97.522     729.276
  H      274.566      97.585     731.004

 6  7  8  9  10  11  12  13  14  15  16  26  30  31  32  33  35 0
 6-311+G(2d,p)
 ****
 37  38 0
 6-311+G(2d,p)
 ****
 1  2  3  4  5  17  18  19  20  21  22  23  24  25 0
 3-21G
 ****
 27  28  29  34  36  39  40  41  42  43  44  45  46 0
 3-21G
 ****


