%nproc=1
%NoSave
%Mem=1900MB
#P OB98/GEN NMR

erre ene a

0 1
  C     -267.802    -154.691     444.504
  O     -266.936    -154.127     443.537
  H     -268.160    -153.897     445.160
  H     -267.249    -155.420     445.105
  H     -268.659    -155.172     444.027
  P     -266.537    -155.052     442.285
  C     -264.108    -155.963     442.403
  O     -265.460    -156.121     442.819
  C     -263.203    -156.932     443.167
  O     -263.551    -158.296     442.790
  C     -261.707    -156.740     442.876
  O     -260.973    -156.934     444.091
  C     -261.388    -157.856     441.897
  O     -260.006    -158.231     441.922
  C     -262.339    -158.947     442.364
  N     -262.046    -163.823     441.100
  C     -261.765    -163.191     442.301
  N     -261.338    -163.976     443.313
  N     -261.900    -161.907     442.486
  C     -262.366    -161.251     441.398
  C     -262.677    -161.752     440.159
  C     -262.499    -163.177     439.953
  O     -262.704    -163.794     438.910
  N     -263.091    -160.762     439.305
  C     -263.035    -159.657     440.027
  N     -262.610    -159.906     441.311
  O     -265.666    -154.064     441.373
  O     -267.683    -155.630     441.526
  H     -259.820    -158.598     442.815
  H     -266.127    -153.913     440.524
  H     -261.912    -164.820     441.008
  H     -263.286    -158.667     439.673
  H     -261.937    -159.514     443.220
  H     -261.634    -157.536     440.880
  H     -261.264    -164.980     443.257
  H     -261.474    -155.756     442.466
  H     -261.164    -163.543     444.213
  H     -263.407    -156.834     444.234
  H     -263.794    -154.934     442.597
  H     -264.039    -156.159     441.326
  P     -260.252    -155.645     444.718
  C     -257.790    -156.075     444.009
  O     -258.964    -155.295     443.814
  O     -259.609    -156.211     446.075
  O     -261.177    -154.501     444.983
  H     -260.113    -155.871     446.844
  H     -257.021    -155.734     443.347
  H     -258.007    -157.103     443.805
  H     -257.459    -155.975     445.022

 6  7  8  9  10  11  12  13  14  15  26  29  33  34 0
 6-311+G(2d,p)
 ****
 36  38  39  40  41 0
 6-311+G(2d,p)
 ****
 1  2  3  4  5  16  17  18  19  20  21  22  23  24  25 0
 3-21G
 ****
 27  28  30  31  32  35  37  42  43  44  45  46  47 0
 3-21G
 ****
 48  49 0
 3-21G
 ****


