%nproc=1
%NoSave
%Mem=1900MB
#P OB98/GEN NMR

erre ene a

0 1
  C       75.579     174.390     181.815
  O       75.745     173.761     180.557
  P       76.051     172.188     180.468
  C       78.088     170.695     180.988
  O       77.598     172.029     180.870
  C       79.619     170.681     181.028
  O       80.163     171.339     179.866
  C       80.217     171.407     182.229
  O       80.114     170.608     183.396
  C       81.641     171.650     181.746
  O       82.461     170.488     181.946
  C       81.435     171.921     180.241
  N       81.494     173.340     179.917
  C       82.761     173.835     179.575
  O       83.743     173.091     179.594
  N       82.886     175.172     179.273
  C       81.843     175.943     179.323
  N       82.033     177.259     179.023
  C       80.501     175.465     179.710
  C       80.397     174.169     179.991
  O       75.649     171.534     179.186
  O       75.288     171.597     181.749
  H       83.359     170.729     181.642
  H       74.306     171.580     181.610
  H       79.666     176.151     179.751
  H       79.450     173.736     180.285
  H       82.197     171.399     179.648
  H       82.120     172.479     182.282
  H       79.708     172.370     182.372
  H       79.952     169.636     181.018
  H       82.977     177.549     178.793
  H       77.748     170.126     180.119
  H       81.302     177.950     179.071
  H       77.676     170.231     181.889
  P       79.736     171.284     184.796
  C       80.604     173.209     186.258
  O       80.776     172.476     185.063
  O       79.543     170.339     185.934
  O       78.372     172.070     184.476
  H       77.737     171.913     185.202
  H       81.536     173.735     186.486
  H       80.362     172.543     187.094
  H       79.802     173.936     186.127
  H       75.384     175.432     181.670
  H       76.471     174.272     182.393
  H       74.757     173.942     182.332

 3  4  5  6  7  8  9  10  11  12  13  23  27  28  29  30  32 0
 6-311+G(2d,p)
 ****
 34  35 0
 6-311+G(2d,p)
 ****
 1  2  14  15  16  17  18  19  20  21  22  24  25  26 0
 3-21G
 ****
 31  33  36  37  38  39  40  41  42  43  44  45  46 0
 3-21G
 ****


