%nproc=1
%NoSave
%Mem=1900MB
#P OB98/GEN NMR

erre ene a

0 1
  C      -82.358     667.042    -361.942
  O      -81.456     667.932    -361.312
  H      -81.831     666.516    -362.740
  H      -83.195     667.596    -362.370
  H      -82.729     666.308    -361.218
  P      -82.030     668.792    -360.085
  C      -81.350     667.361    -358.020
  O      -81.070     668.496    -358.837
  C      -80.045     666.792    -357.471
  O      -79.312     666.135    -358.531
  C      -79.098     667.846    -356.916
  O      -79.472     668.283    -355.620
  C      -77.774     667.094    -356.946
  O      -77.620     666.261    -355.791
  C      -77.907     666.237    -358.208
  N      -73.508     666.066    -360.798
  C      -73.987     665.322    -359.774
  N      -75.176     665.424    -359.145
  C      -75.919     666.397    -359.699
  C      -75.573     667.233    -360.745
  C      -74.301     667.040    -361.309
  N      -73.807     667.813    -362.335
  N      -76.587     668.135    -361.005
  C      -77.533     667.845    -360.134
  N      -77.175     666.799    -359.327
  O      -83.386     668.027    -359.713
  O      -82.268     670.236    -360.379
  H      -78.391     665.661    -355.788
  H      -84.145     668.504    -360.101
  H      -73.313     664.549    -359.405
  H      -78.480     668.361    -360.044
  H      -77.534     665.216    -358.057
  H      -76.936     667.788    -356.972
  H      -79.036     668.696    -357.606
  H      -80.287     666.042    -356.706
  H      -81.852     666.597    -358.620
  H      -82.013     667.667    -357.206
  H      -72.863     667.661    -362.644
  H      -74.343     668.613    -362.646
  P      -79.249     669.827    -355.262
  C      -81.435     670.863    -356.236
  O      -80.695     670.490    -355.084
  O      -78.707     670.463    -356.626
  O      -78.310     670.072    -354.125
  H      -78.053     671.163    -356.433
  H      -82.371     671.287    -355.937
  H      -81.612     669.999    -356.841
  H      -80.880     671.584    -356.798

 6  7  8  9  10  11  12  13  14  15  25  28  32  33  34  35 0
 6-311+G(2d,p)
 ****
 36  37  40 0
 6-311+G(2d,p)
 ****
 1  2  3  4  5  16  17  18  19  20  21  22  23  24 0
 3-21G
 ****
 26  27  29  30  31  38  39 41  42  43  44  45  46  47  48 0
 3-21G
 ****


