%nproc=1
%NoSave
%Mem=1900MB
#P OB98/GEN NMR

erre ene a

0 1
  C     -419.153     -18.022     389.729
  O     -417.784     -18.240     389.998
  H     -419.450     -17.063     390.167
  H     -419.757     -18.813     390.185
  H     -419.336     -17.987     388.651
  P     -417.093     -19.517     389.308
  C     -415.241     -20.103     391.040
  O     -415.561     -19.514     389.784
  C     -414.063     -19.379     391.694
  O     -414.513     -18.072     392.141
  C     -413.480     -20.120     392.898
  O     -412.058     -19.958     392.884
  C     -414.062     -19.376     394.087
  O     -413.255     -19.504     395.264
  C     -414.185     -17.951     393.541
  N     -415.188     -17.182     394.267
  C     -414.736     -16.039     394.932
  O     -413.547     -15.732     394.907
  N     -415.636     -15.305     395.681
  C     -416.855     -15.728     395.807
  N     -417.687     -14.974     396.580
  C     -417.362     -16.964     395.173
  C     -416.480     -17.626     394.427
  O     -416.998     -19.098     387.767
  O     -417.804     -20.810     389.508
  H     -413.673     -18.975     395.978
  H     -417.077     -19.883     387.187
  H     -418.375     -17.290     395.334
  H     -416.757     -18.553     393.922
  H     -413.217     -17.430     393.608
  H     -415.057     -19.779     394.327
  H     -413.726     -21.183     392.910
  H     -413.293     -19.212     390.923
  H     -417.301     -14.145     397.007
  H     -414.974     -21.152     390.881
  H     -418.643     -15.233     396.786
  H     -416.123     -20.064     391.691
  P     -411.187     -21.257     393.250
  C     -409.949     -20.699     395.475
  O     -409.878     -20.764     394.055
  O     -410.605     -21.726     391.834
  O     -411.972     -22.336     393.922
  H     -411.052     -22.542     391.554
  H     -409.012     -20.358     395.864
  H     -410.165     -21.671     395.866
  H     -410.723     -20.019     395.763

 6  7  8  9  10  11  12  13  14  15  16  26  30  31  32  33  35 0
 6-311+G(2d,p)
 ****
 37  38 0
 6-311+G(2d,p)
 ****
 1  2  3  4  5  17  18  19  20  21  22  23  24  25 0
 3-21G
 ****
 27  28  29  34  36  39  40  41  42  43  44  45  46 0
 3-21G
 ****


