%nproc=1
%NoSave
%Mem=1900MB
#P OB98/GEN NMR

erre ene a

0 1
  C      183.725     -41.226    -277.624
  O      182.727     -41.941    -278.319
  P      181.678     -41.195    -279.274
  C      179.875     -40.785    -277.477
  O      180.840     -40.190    -278.336
  C      178.564     -39.992    -277.520
  O      178.820     -38.638    -277.038
  C      177.975     -39.884    -278.939
  O      176.611     -40.292    -279.051
  C      178.256     -38.436    -279.311
  O      177.432     -37.937    -280.349
  C      178.152     -37.743    -277.948
  N      178.746     -36.408    -277.954
  C      178.050     -35.407    -278.626
  O      176.977     -35.568    -279.199
  N      178.662     -34.186    -278.682
  C      179.922     -33.899    -278.245
  O      180.444     -32.812    -278.415
  C      180.624     -35.006    -277.579
  C      180.008     -36.183    -277.446
  O      180.839     -42.088    -280.119
  O      182.602     -40.183    -280.104
  H      176.589     -37.646    -279.945
  H      183.091     -39.537    -279.564
  H      178.169     -33.449    -279.167
  H      181.632     -34.814    -277.232
  H      180.505     -37.019    -276.958
  H      177.115     -37.655    -277.622
  H      179.292     -38.379    -279.672
  H      178.504     -40.547    -279.640
  H      177.859     -40.479    -276.837
  H      180.266     -40.778    -276.455
  H      179.716     -41.832    -277.763
  P      175.975     -41.056    -280.303
  C      175.135     -38.945    -281.575
  O      176.004     -40.063    -281.558
  O      174.667     -41.715    -280.054
  O      177.091     -42.144    -280.685
  H      176.666     -42.920    -281.090
  H      174.906     -38.697    -282.617
  H      175.635     -38.090    -281.110
  H      174.203     -39.156    -281.047
  H      184.315     -41.907    -277.047
  H      183.265     -40.513    -276.972
  H      184.352     -40.716    -278.325

 3  4  5  6  7  8  9  10  11  12  13  23  28  29  30  31  32 0
 6-311+G(2d,p)
 ****
 33  34 0
 6-311+G(2d,p)
 ****
 1  2  14  15  16  17  18  19  20  21  22  24  25  26  27 0
 3-21G
 ****
 35  36  37  38  39  40  41  42  43  44  45 0
 3-21G
 ****


