%nproc=1
%NoSave
%Mem=1900MB
#P OB98/GEN NMR

erre ene a

0 1
  C      188.259    -416.486     112.737
  O      187.654    -415.428     113.494
  P      187.538    -415.628     115.081
  C      189.888    -414.663     115.719
  O      189.044    -415.798     115.605
  C      190.487    -414.591     117.124
  O      191.448    -415.658     117.322
  C      191.246    -413.306     117.417
  O      190.353    -412.219     117.631
  C      192.058    -413.723     118.637
  O      191.250    -413.658     119.817
  C      192.399    -415.190     118.306
  N      193.770    -415.370     117.850
  C      194.686    -415.797     118.821
  O      194.374    -415.989     119.991
  N      195.972    -415.965     118.388
  C      196.436    -415.734     117.123
  O      197.604    -415.923     116.793
  C      195.443    -415.239     116.162
  C      194.176    -415.083     116.558
  O      186.919    -417.103     115.158
  O      186.730    -414.567     115.744
  H      187.249    -417.689     114.457
  H      191.829    -413.916     120.569
  H      196.646    -416.284     119.072
  H      195.777    -415.019     115.158
  H      193.428    -414.711     115.867
  H      192.252    -415.819     119.193
  H      192.923    -413.075     118.800
  H      191.915    -413.071     116.577
  H      189.671    -414.726     117.847
  H      189.311    -413.752     115.531
  H      190.669    -414.721     114.953
  P      190.895    -410.755     117.257
  C      189.954    -410.543     114.822
  O      191.071    -410.729     115.666
  O      192.396    -410.824     117.805
  O      190.075    -409.642     117.830
  H      192.844    -411.655     117.588
  H      190.303    -410.213     113.848
  H      189.269    -409.795     115.232
  H      189.423    -411.496     114.708
  H      188.271    -416.221     111.700
  H      187.696    -417.386     112.869
  H      189.262    -416.640     113.077

 3  4  5  6  7  8  9  10  11  12  13  24  28  29  30  31  32 0
 6-311+G(2d,p)
 ****
 33  34 0
 6-311+G(2d,p)
 ****
 1  2  14  15  16  17  18  19  20  21  22  23  25  26  27 0
 3-21G
 ****
 35  36  37  38  39  40  41  42  43  44  45 0
 3-21G
 ****


