%nproc=1
%NoSave
%Mem=1900MB
#P OB98/GEN NMR

erre ene a

0 1
  C       -6.932     244.973     -60.042
  O       -7.756     245.944     -59.430
  H       -7.447     244.009     -60.017
  H       -5.987     244.881     -59.501
  H       -6.741     245.246     -61.083
  P       -7.127     247.414     -59.264
  C       -8.353     249.695     -58.960
  O       -8.381     248.388     -59.514
  C       -9.440     250.555     -59.595
  O       -9.314     250.550     -61.037
  C      -10.865     250.084     -59.318
  O      -11.328     250.428     -58.022
  C      -11.607     250.843     -60.403
  O      -11.714     252.232     -60.033
  C      -10.650     250.655     -61.599
  N      -10.964     249.469     -62.402
  C      -11.389     249.695     -63.718
  O      -11.489     250.838     -64.157
  N      -11.728     248.616     -64.496
  C      -11.629     247.413     -64.016
  N      -11.980     246.385     -64.837
  C      -11.176     247.129     -62.644
  C      -10.862     248.188     -61.900
  O       -6.266     247.602     -60.601
  O       -6.375     247.667     -58.001
  H      -10.812     252.530     -59.815
  H       -5.950     248.536     -60.670
  H      -11.123     246.111     -62.285
  H      -10.519     248.057     -60.880
  H      -10.662     251.533     -62.256
  H      -12.621     250.479     -60.569
  H      -10.977     249.010     -59.499
  H       -9.289     251.588     -59.259
  H      -12.345     246.616     -65.751
  H       -7.367     250.131     -59.152
  H      -12.082     245.433     -64.509
  H       -8.518     249.648     -57.877
  P      -12.760     249.853     -57.575
  C      -13.590     248.220     -55.725
  O      -12.522     249.008     -56.235
  O      -13.060     248.731     -58.672
  O      -13.853     250.873     -57.501
  H      -14.016     248.677     -58.865
  H      -13.272     247.722     -54.833
  H      -13.878     247.493     -56.456
  H      -14.424     248.852     -55.502

 6  7  8  9  10  11  12  13  14  15  16  26  30  31  32  33  35 0
 6-311+G(2d,p)
 ****
 37  38 0
 6-311+G(2d,p)
 ****
 1  2  3  4  5  17  18  19  20  21  22  23  24  25 0
 3-21G
 ****
 27  28  29  34  36  39  40  41  42  43  44  45  46 0
 3-21G
 ****


