%nproc=1
%NoSave
%Mem=1900MB
#P OB98/GEN NMR

erre ene a

0 1
  C     -277.584     182.696     -99.296
  O     -277.307     181.687    -100.246
  H     -276.843     182.635     -98.495
  H     -278.576     182.547     -98.863
  H     -277.523     183.689     -99.755
  P     -278.155     181.654    -101.605
  C     -276.593     183.170    -102.992
  O     -277.117     181.859    -102.808
  C     -275.357     183.111    -103.888
  O     -274.268     182.453    -103.200
  C     -275.568     182.332    -105.181
  O     -276.299     183.084    -106.121
  C     -274.122     182.043    -105.572
  O     -273.537     183.181    -106.226
  C     -273.466     181.790    -104.200
  N     -273.310     180.368    -103.896
  C     -272.104     179.784    -104.267
  O     -271.208     180.390    -104.848
  N     -271.972     178.450    -103.969
  C     -272.942     177.643    -103.452
  O     -272.802     176.433    -103.291
  C     -274.205     178.311    -103.104
  C     -274.329     179.620    -103.339
  O     -279.354     182.541    -101.644
  O     -278.570     180.111    -101.751
  H     -273.838     183.966    -105.727
  H     -279.513     180.007    -101.520
  H     -271.105     178.007    -104.241
  H     -274.997     177.704    -102.681
  H     -275.256     180.126    -103.092
  H     -272.473     182.260    -104.162
  H     -274.045     181.198    -106.260
  H     -276.068     181.379    -104.964
  H     -275.041     184.145    -104.106
  H     -276.317     183.578    -102.016
  H     -277.368     183.799    -103.441
  P     -277.441     182.372    -106.991
  C     -279.145     182.724    -105.096
  O     -278.860     182.919    -106.481
  O     -277.337     180.889    -107.095
  O     -277.297     183.052    -108.432
  H     -277.090     182.368    -109.099
  H     -280.111     183.125    -104.871
  H     -278.405     183.223    -104.506
  H     -279.133     181.678    -104.873

 6  7  8  9  10  11  12  13  14  15  16  26  31  32  33  34  35 0
 6-311+G(2d,p)
 ****
 36  37 0
 6-311+G(2d,p)
 ****
 1  2  3  4  5  17  18  19  20  21  22  23  24  25 0
 3-21G
 ****
 27  28  29  30  38  39  40  41  42  43  44  45 0
 3-21G
 ****


