%nproc=1
%NoSave
%Mem=1900MB
#P OB98/GEN NMR

erre ene a

0 1
  C       76.908     250.203      28.702
  O       76.413     249.114      27.949
  H       77.651     249.831      29.412
  H       76.093     250.678      29.256
  H       77.384     250.935      28.042
  P       75.315     249.460      26.831
  C       73.280     249.661      28.449
  O       74.183     250.321      27.575
  C       71.878     250.270      28.325
  O       71.907     251.622      28.870
  C       71.374     250.386      26.877
  O       69.939     250.302      26.900
  C       71.796     251.801      26.517
  O       71.152     252.239      25.342
  C       71.448     252.509      27.824
  N       71.092     257.059      30.127
  C       70.363     255.929      30.251
  N       70.525     254.753      29.613
  C       71.583     254.801      28.786
  C       72.427     255.880      28.562
  C       72.145     257.056      29.275
  N       72.883     258.209      29.148
  N       73.401     255.549      27.639
  C       73.151     254.297      27.314
  N       72.058     253.807      27.974
  O       74.607     248.051      26.563
  O       75.845     250.070      25.577
  H       71.290     251.600      24.613
  H       75.016     247.616      25.790
  H       69.534     255.978      30.953
  H       73.718     253.705      26.604
  H       70.366     252.633      27.945
  H       72.871     251.849      26.321
  H       71.774     249.614      26.215
  H       71.181     249.693      28.946
  H       73.644     249.773      29.476
  H       73.237     248.598      28.197
  H       72.605     259.015      29.684
  H       73.660     258.226      28.504
  P       69.236     248.873      26.683
  C       68.760     249.039      24.115
  O       69.476     248.409      25.165
  O       67.680     249.267      26.663
  O       69.508     247.847      27.734
  H       67.150     248.511      26.974
  H       69.045     248.606      23.179
  H       68.985     250.085      24.107
  H       67.710     248.902      24.267

 6  7  8  9  10  11  12  13  14  15  25  28  32  33  34  35 0
 6-311+G(2d,p)
 ****
 36  37  40 0
 6-311+G(2d,p)
 ****
 1  2  3  4  5  16  17  18  19  20  21  22  23  24 0
 3-21G
 ****
 26  27  29  30  31  38  39 41  42  43  44  45  46  47  48 0
 3-21G
 ****


