%nproc=1
%NoSave
%Mem=1900MB
#P OB98/GEN NMR

erre ene a

0 1
  C     -893.230    -398.779    -191.955
  O     -892.300    -399.597    -192.667
  P     -890.990    -400.230    -192.009
  C     -891.760    -402.677    -192.382
  O     -891.380    -401.691    -191.442
  C     -892.170    -403.975    -191.670
  O     -893.340    -403.742    -190.848
  C     -892.610    -405.120    -192.593
  O     -891.510    -405.709    -193.267
  C     -893.320    -406.043    -191.604
  O     -892.400    -406.889    -190.932
  C     -893.940    -405.037    -190.613
  N     -895.390    -404.937    -190.730
  C     -896.120    -405.849    -189.956
  O     -895.580    -406.714    -189.285
  N     -897.510    -405.760    -189.974
  C     -898.090    -404.894    -190.757
  N     -899.450    -404.848    -190.724
  C     -897.350    -404.032    -191.685
  C     -896.020    -404.102    -191.619
  O     -890.330    -399.355    -191.006
  O     -890.010    -400.555    -193.241
  H     -889.070    -400.544    -192.925
  H     -891.830    -407.288    -191.624
  H     -897.870    -403.383    -192.370
  H     -895.390    -403.484    -192.264
  H     -893.680    -405.299    -189.591
  H     -894.040    -406.672    -192.128
  H     -893.330    -404.721    -193.336
  H     -891.340    -404.307    -191.032
  H     -899.940    -405.450    -190.071
  H     -890.890    -402.884    -193.030
  H     -900.000    -404.213    -191.290
  H     -892.570    -402.300    -193.017
  P     -890.860    -404.897    -194.477
  C     -888.550    -404.519    -193.360
  O     -889.720    -403.929    -193.873
  O     -892.020    -403.908    -194.921
  O     -890.410    -405.750    -195.627
  H     -892.030    -403.819    -195.892
  H     -887.720    -403.780    -193.448
  H     -888.250    -405.412    -193.894
  H     -888.680    -404.745    -192.298
  H     -894.019    -398.480    -192.613
  H     -892.728    -397.911    -191.582
  H     -893.639    -399.334    -191.137

 3  4  5  6  7  8  9  10  11  12  13  24  27  28  29  30  32 0
 6-311+G(2d,p)
 ****
 34  35 0
 6-311+G(2d,p)
 ****
 1  2  14  15  16  17  18  19  20  21  22  23  25  26 0
 3-21G
 ****
 31  33  36  37  38  39  40  41  42  43  44  45  46 0
 3-21G
 ****


