%nproc=1
%NoSave
%Mem=1900MB
#P OB98/GEN NMR

erre ene a

0 1
  C      585.924      66.385     403.446
  O      586.388      67.721     403.247
  P      587.304      68.040     401.969
  C      588.937      69.944     402.554
  O      587.674      69.602     401.994
  C      589.055      71.455     402.748
  O      588.736      72.171     401.538
  C      588.105      72.000     403.801
  O      588.559      71.676     405.105
  C      588.101      73.483     403.465
  O      589.244      74.144     404.037
  C      588.220      73.466     401.924
  N      586.961      73.762     401.251
  C      586.939      74.935     400.484
  O      587.926      75.668     400.439
  N      585.792      75.252     399.801
  C      584.756      74.469     399.883
  N      583.646      74.829     399.186
  C      584.735      73.232     400.692
  C      585.861      72.947     401.346
  O      586.787      67.527     400.665
  O      588.698      67.346     402.353
  H      589.067      75.106     403.960
  H      589.146      67.061     401.530
  H      583.853      72.610     400.720
  H      585.929      72.058     401.964
  H      588.961      74.206     401.592
  H      587.212      73.985     403.852
  H      587.103      71.587     403.644
  H      590.092      71.687     403.024
  H      583.681      75.687     398.648
  H      589.735      69.593     401.892
  H      582.808      74.263     399.143
  H      589.061      69.413     403.505
  P      587.471      71.142     406.157
  C      588.432      72.214     408.310
  O      588.191      71.027     407.585
  O      587.276      69.610     405.718
  O      586.171      71.875     406.145
  H      586.353      69.342     405.874
  H      588.619      71.949     409.359
  H      587.577      72.897     408.268
  H      589.320      72.711     407.912
  H      585.331      66.342     404.336
  H      586.762      65.727     403.544
  H      585.331      66.085     402.607

 3  4  5  6  7  8  9  10  11  12  13  23  27  28  29  30  32 0
 6-311+G(2d,p)
 ****
 34  35 0
 6-311+G(2d,p)
 ****
 1  2  14  15  16  17  18  19  20  21  22  24  25  26 0
 3-21G
 ****
 31  33  36  37  38  39  40  41  42  43  44  45  46 0
 3-21G
 ****


