%nproc=1
%NoSave
%Mem=1900MB
#P OB98/GEN NMR

erre ene a

0 1
  C     -210.019    -467.976    -165.182
  O     -209.365    -467.360    -164.071
  P     -208.188    -468.194    -163.366
  C     -206.957    -466.099    -162.471
  O     -207.608    -467.318    -162.151
  C     -207.926    -464.914    -162.412
  O     -208.636    -464.887    -161.141
  C     -207.243    -463.552    -162.568
  O     -208.152    -462.683    -163.253
  C     -207.103    -463.076    -161.134
  O     -206.909    -461.665    -161.068
  C     -208.415    -463.593    -160.547
  N     -207.590    -460.997    -156.230
  C     -207.571    -460.622    -157.528
  N     -207.780    -461.383    -158.622
  C     -208.076    -462.647    -158.269
  C     -208.123    -463.176    -156.992
  C     -207.861    -462.290    -155.935
  N     -207.853    -462.673    -154.613
  N     -208.411    -464.525    -157.035
  C     -208.531    -464.801    -158.319
  N     -208.367    -463.695    -159.100
  O     -207.014    -468.157    -164.452
  O     -208.566    -469.596    -163.019
  H     -206.883    -461.401    -160.123
  H     -206.913    -469.035    -164.864
  H     -207.352    -459.571    -157.711
  H     -208.728    -465.780    -158.731
  H     -209.268    -462.950    -160.796
  H     -206.244    -463.564    -160.660
  H     -206.284    -463.578    -163.094
  H     -208.674    -465.041    -163.204
  H     -206.524    -466.156    -163.474
  H     -207.628    -461.982    -153.917
  H     -208.009    -463.642    -154.383
  H     -206.111    -465.955    -161.788
  P     -207.745    -462.259    -164.745
  C     -210.108    -461.873    -165.744
  O     -208.909    -461.292    -165.269
  O     -207.952    -463.600    -165.593
  O     -206.355    -461.727    -164.869
  H     -207.380    -463.593    -166.380
  H     -210.951    -461.274    -165.394
  H     -210.238    -462.902    -165.389
  H     -210.098    -461.871    -166.836
  H     -210.777    -467.321    -165.558
  H     -210.466    -468.896    -164.867
  H     -209.303    -468.173    -165.953

 3  4  5  6  7  8  9  10  11  12  22  25  29  30  31  32 0
 6-311+G(2d,p)
 ****
 33  36  37 0
 6-311+G(2d,p)
 ****
 1  2  13  14  15  16  17  18  19  20  21  23  24  26 0
 3-21G
 ****
 27  28  34  35  38  39  40  41  42  43  44  45  46  47  48 0
 3-21G
 ****


