%nproc=1
%NoSave
%Mem=1900MB
#P OB98/GEN NMR

erre ene a

0 1
  C      -74.852     102.929     289.170
  O      -74.844     104.304     288.774
  P      -73.447     105.086     288.876
  C      -74.110     106.568     290.895
  O      -73.242     105.557     290.399
  C      -74.098     106.607     292.428
  O      -72.756     106.866     292.932
  C      -75.008     107.689     293.023
  O      -75.530     107.187     294.262
  C      -74.044     108.820     293.324
  O      -74.588     109.734     294.272
  C      -72.823     108.026     293.785
  N      -70.591     112.419     295.115
  C      -71.829     111.929     295.343
  N      -72.356     110.754     294.931
  C      -71.439     110.041     294.251
  C      -70.147     110.413     293.933
  C      -69.723     111.673     294.395
  N      -68.470     112.184     294.140
  N      -69.530     109.433     293.182
  C      -70.443     108.488     293.047
  N      -71.600     108.798     293.704
  O      -73.734     106.451     288.092
  O      -72.297     104.345     288.280
  H      -75.452     110.046     293.934
  H      -73.269     106.447     287.236
  H      -72.487     112.565     295.928
  H      -70.317     107.574     292.484
  H      -72.921     107.683     294.826
  H      -73.823     109.376     292.399
  H      -75.834     107.999     292.373
  H      -74.403     105.624     292.805
  H      -75.132     106.385     290.552
  H      -68.256     113.108     294.482
  H      -67.830     111.658     293.565
  H      -73.816     107.531     290.472
  P      -77.091     106.831     294.288
  C      -78.123     108.977     295.316
  O      -77.872     108.222     294.146
  O      -77.351     106.401     295.810
  O      -77.491     105.759     293.328
  H      -78.116     105.802     295.864
  H      -77.969     110.035     295.093
  H      -77.470     108.693     296.143
  H      -79.165     108.829     295.617
  H      -75.838     102.530     289.054
  H      -74.554     102.851     290.195
  H      -74.170     102.377     288.558

 3  4  5  6  7  8  9  10  11  12  22  25  29  30  31  32 0
 6-311+G(2d,p)
 ****
 33  36  37 0
 6-311+G(2d,p)
 ****
 1  2  13  14  15  16  17  18  19  20  21  23  24  26 0
 3-21G
 ****
 27  28  34  35  38  39  40  41  42  43  44  45  46  47  48 0
 3-21G
 ****


