%nproc=1
%NoSave
%Mem=1900MB
#P OB98/GEN NMR

erre ene a

0 1
  C       44.732     -22.373      51.641
  O       43.595     -23.042      51.128
  H       44.438     -21.816      52.533
  H       45.121     -21.671      50.898
  H       45.503     -23.098      51.913
  P       43.825     -23.943      49.820
  C       42.876     -22.111      48.255
  O       44.011     -22.878      48.635
  C       43.294     -20.940      47.370
  O       44.075     -19.993      48.119
  C       44.152     -21.332      46.173
  O       43.349     -21.826      45.114
  C       44.783     -19.993      45.826
  O       43.845     -19.192      45.079
  C       45.020     -19.364      47.211
  N       49.681     -17.254      47.638
  C       48.604     -16.910      46.898
  N       47.415     -17.541      46.801
  C       47.392     -18.638      47.576
  C       48.413     -19.113      48.385
  C       49.601     -18.364      48.408
  N       50.694     -18.712      49.173
  N       48.028     -20.269      49.032
  C       46.778     -20.458      48.660
  N       46.358     -19.519      47.751
  O       42.821     -25.019      49.591
  O       45.325     -24.452      50.060
  H       44.287     -18.350      44.862
  H       45.868     -23.743      50.448
  H       48.712     -16.007      46.304
  H       46.131     -21.245      49.030
  H       44.808     -18.288      47.210
  H       45.674     -20.101      45.204
  H       44.941     -22.036      46.460
  H       42.381     -20.423      47.044
  H       42.352     -21.739      49.142
  H       51.558     -18.221      49.001
  H       50.677     -19.603      49.648
  H       42.200     -22.776      47.708
  P       44.003     -22.668      43.917
  C       43.588     -20.704      42.312
  O       44.553     -21.599      42.853
  O       43.128     -23.726      43.338
  O       45.342     -23.280      44.540
  H       45.489     -24.186      44.206
  H       44.064     -20.042      41.620
  H       43.146     -20.135      43.103
  H       42.828     -21.262      41.806

 6  7  8  9  10  11  12  13  14  15  25  28  32  33  34  35 0
 6-311+G(2d,p)
 ****
 36  39  40 0
 6-311+G(2d,p)
 ****
 1  2  3  4  5  16  17  18  19  20  21  22  23  24 0
 3-21G
 ****
 26  27  29  30  31  37  38  41  42  43  44  45  46  47 0
 3-21G
 ****
 48 0
 3-21G
 ****


