%nproc=1
%NoSave
%Mem=1900MB
#P OB98/GEN NMR

erre ene a

0 1
  C      -29.322    -118.145     -78.706
  O      -29.249    -116.973     -77.918
  P      -28.819    -115.580     -78.582
  C      -31.353    -115.311     -78.925
  O      -30.055    -115.026     -79.441
  C      -32.406    -114.468     -79.642
  O      -32.390    -113.106     -79.161
  C      -32.197    -114.361     -81.143
  O      -32.520    -115.565     -81.815
  C      -33.094    -113.176     -81.480
  O      -34.465    -113.590     -81.583
  C      -32.898    -112.277     -80.238
  N      -32.016    -111.153     -80.503
  C      -32.637    -109.908     -80.664
  O      -33.863    -109.819     -80.662
  N      -31.846    -108.800     -80.835
  C      -30.563    -108.934     -80.961
  N      -29.825    -107.798     -81.064
  C      -29.883    -110.249     -80.958
  C      -30.663    -111.300     -80.704
  O      -27.512    -115.595     -79.305
  O      -28.767    -114.561     -77.344
  H      -27.913    -114.085     -77.365
  H      -34.997    -112.776     -81.666
  H      -28.821    -110.314     -81.132
  H      -30.248    -112.305     -80.662
  H      -33.864    -111.896     -79.890
  H      -32.826    -112.704     -82.426
  H      -31.152    -114.096     -81.353
  H      -33.393    -114.902     -79.425
  H      -30.320    -106.917     -81.045
  H      -31.362    -115.077     -77.854
  H      -28.833    -107.766     -80.842
  H      -31.563    -116.377     -79.048
  P      -32.018    -115.710     -83.334
  C      -29.722    -116.869     -83.049
  O      -30.419    -115.666     -83.318
  O      -32.431    -114.304     -83.989
  O      -32.621    -116.852     -84.081
  H      -32.714    -114.444     -84.911
  H      -28.693    -116.765     -83.412
  H      -30.187    -117.722     -83.548
  H      -29.697    -117.042     -81.969
  H      -29.623    -118.969     -78.093
  H      -28.362    -118.349     -79.131
  H      -30.036    -118.004     -79.490

 3  4  5  6  7  8  9  10  11  12  13  24  27  28  29  30  32 0
 6-311+G(2d,p)
 ****
 34  35 0
 6-311+G(2d,p)
 ****
 1  2  14  15  16  17  18  19  20  21  22  23  25  26 0
 3-21G
 ****
 31  33  36  37  38  39  40  41  42  43  44  45  46 0
 3-21G
 ****


