%nproc=1
%NoSave
%Mem=1900MB
#P OB98/GEN NMR

erre ene a

0 1
  C      -41.334    -490.315    -899.470
  O      -41.357    -490.518    -898.070
  H      -40.484    -489.674    -899.720
  H      -42.253    -489.817    -899.800
  H      -41.229    -491.267    -900.000
  P      -42.557    -491.405    -897.500
  C      -42.772    -493.202    -895.620
  O      -41.901    -492.402    -896.420
  C      -42.006    -493.813    -894.450
  O      -41.145    -494.894    -894.910
  C      -41.114    -492.838    -893.680
  O      -41.869    -492.085    -892.750
  C      -40.121    -493.787    -893.040
  O      -40.672    -494.366    -891.850
  C      -39.917    -494.840    -894.130
  N      -35.662    -496.769    -896.080
  C      -36.612    -497.347    -895.270
  N      -36.369    -498.625    -894.850
  N      -37.697    -496.741    -894.850
  C      -37.802    -495.469    -895.310
  C      -36.947    -494.786    -896.150
  C      -35.764    -495.487    -896.610
  O      -34.915    -495.055    -897.390
  N      -37.392    -493.521    -896.420
  C      -38.507    -493.419    -895.700
  N      -38.795    -494.574    -895.020
  O      -42.925    -492.382    -898.720
  O      -43.751    -490.648    -897.030
  H      -40.697    -493.687    -891.140
  H      -43.870    -492.604    -898.680
  H      -34.862    -497.294    -896.370
  H      -39.152    -492.548    -895.670
  H      -39.750    -495.841    -893.720
  H      -39.217    -493.270    -892.740
  H      -35.439    -498.996    -894.850
  H      -40.585    -492.165    -894.400
  H      -37.041    -499.041    -894.220
  H      -42.751    -494.255    -893.770
  H      -43.182    -494.005    -896.250
  H      -43.593    -492.576    -895.250
  P      -41.417    -490.561    -892.480
  C      -42.646    -488.436    -891.610
  O      -42.764    -489.741    -892.190
  O      -40.974    -490.041    -893.930
  O      -40.321    -490.397    -891.470
  H      -40.430    -489.246    -893.840
  H      -43.621    -488.016    -891.476
  H      -42.073    -487.808    -892.259
  H      -42.156    -488.510    -890.661

 6  7  8  9  10  11  12  13  14  15  26  29  33  34 0
 6-311+G(2d,p)
 ****
 36  38  39  40  41 0
 6-311+G(2d,p)
 ****
 1  2  3  4  5  16  17  18  19  20  21  22  23  24  25 0
 3-21G
 ****
 27  28  30  31  32  35  37  42  43  44  45  46  47 0
 3-21G
 ****
 48  49 0
 3-21G
 ****


