%nproc=1
%NoSave
%Mem=1900MB
#P OB98/GEN NMR

erre ene a

0 1
  C     -801.555     245.597     190.673
  O     -801.263     244.401     189.934
  P     -801.014     244.418     188.351
  C     -798.640     243.426     188.438
  O     -799.441     244.546     188.078
  C     -797.143     243.706     188.238
  O     -796.715     244.803     189.077
  C     -796.229     242.532     188.580
  O     -796.218     241.589     187.524
  C     -794.899     243.251     188.810
  O     -794.254     243.538     187.558
  C     -795.356     244.554     189.488
  N     -792.153     244.238     193.459
  C     -791.937     244.294     192.131
  N     -792.844     244.374     191.132
  C     -794.092     244.418     191.631
  C     -794.466     244.360     192.964
  C     -793.433     244.259     193.911
  N     -793.655     244.184     195.262
  N     -795.844     244.401     193.089
  C     -796.288     244.499     191.848
  N     -795.265     244.510     190.937
  O     -801.849     245.408     187.607
  O     -801.346     242.926     187.874
  H     -793.403     243.960     187.759
  H     -801.650     242.935     186.944
  H     -790.894     244.277     191.821
  H     -797.329     244.568     191.572
  H     -794.768     245.414     189.150
  H     -794.202     242.663     189.418
  H     -796.555     242.063     189.515
  H     -796.996     244.020     187.197
  H     -798.937     242.575     187.810
  H     -792.858     244.086     195.872
  H     -794.608     244.154     195.602
  H     -798.835     243.176     189.488
  P     -797.448     240.570     187.346
  C     -798.171     241.647     185.132
  O     -798.552     241.317     186.458
  O     -797.958     239.955     188.606
  O     -796.879     239.460     186.349
  H     -797.312     238.610     186.529
  H     -797.564     242.543     185.138
  H     -799.077     241.820     184.546
  H     -797.609     240.822     184.679
  H     -801.684     245.355     191.707
  H     -802.453     246.039     190.296
  H     -800.745     246.288     190.567

 3  4  5  6  7  8  9  10  11  12  22  25  29  30  31  32 0
 6-311+G(2d,p)
 ****
 33  36  37 0
 6-311+G(2d,p)
 ****
 1  2  13  14  15  16  17  18  19  20  21  23  24  26 0
 3-21G
 ****
 27  28  34  35  38  39  40  41  42  43  44  45  46  47  48 0
 3-21G
 ****


