%nproc=1
%NoSave
%Mem=1900MB
#P OB98/GEN NMR

erre ene a

0 1
  C      552.233    -909.249     313.694
  O      553.523    -908.748     313.417
  H      552.185    -910.292     313.364
  H      551.479    -908.669     313.148
  H      552.033    -909.204     314.769
  P      553.803    -907.214     313.799
  C      556.176    -907.458     312.768
  O      554.940    -906.747     312.763
  C      556.778    -907.477     311.366
  O      555.944    -908.220     310.471
  C      556.971    -906.101     310.753
  O      558.176    -905.521     311.198
  C      557.055    -906.470     309.269
  O      558.385    -906.933     308.951
  C      556.055    -907.628     309.142
  N      553.264    -905.859     305.202
  C      554.607    -905.931     305.400
  N      555.292    -906.363     306.487
  C      554.413    -906.756     307.450
  C      553.032    -906.728     307.401
  C      552.461    -906.260     306.209
  N      551.093    -906.176     306.012
  N      552.481    -907.217     308.575
  C      553.538    -907.568     309.304
  N      554.733    -907.275     308.676
  O      554.076    -906.944     315.243
  O      552.487    -906.507     313.212
  H      558.984    -906.159     309.081
  H      552.246    -906.904     312.350
  H      555.221    -905.589     304.573
  H      553.485    -908.063     310.270
  H      556.429    -908.410     308.481
  H      556.841    -905.626     308.614
  H      556.102    -905.446     310.907
  H      557.750    -908.020     311.436
  H      556.012    -908.478     313.126
  H      550.764    -905.661     305.230
  H      550.487    -906.368     306.806
  H      556.843    -906.948     313.477
  P      558.336    -903.924     311.330
  C      560.869    -904.394     311.295
  O      559.810    -903.601     310.778
  O      558.015    -903.381     312.690
  O      557.385    -903.342     310.177
  H      557.198    -902.401     310.343
  H      561.794    -904.085     310.854
  H      560.690    -905.423     311.064
  H      560.921    -904.271     312.357

 6  7  8  9  10  11  12  13  14  15  25  28  32  33  34  35 0
 6-311+G(2d,p)
 ****
 36  39  40 0
 6-311+G(2d,p)
 ****
 1  2  3  4  5  16  17  18  19  20  21  22  23  24 0
 3-21G
 ****
 26  27  29  30  31  37  38  41  42  43  44  45  46  47 0
 3-21G
 ****
 48 0
 3-21G
 ****


