%nproc=1
%NoSave
%Mem=1900MB
#P OB98/GEN NMR

erre ene a

0 1
  C      439.154     420.944     374.904
  O      438.598     419.907     374.124
  P      437.376     419.072     374.746
  C      437.305     417.183     376.574
  O      438.045     417.886     375.583
  C      438.175     416.117     377.232
  O      439.100     416.735     378.136
  C      437.407     415.086     378.062
  O      436.763     414.113     377.242
  C      438.523     414.534     378.949
  O      439.294     413.555     378.218
  C      439.371     415.794     379.209
  N      439.117     416.396     380.525
  C      440.010     416.061     381.530
  O      440.966     415.295     381.370
  N      439.756     416.613     382.759
  C      438.683     417.405     383.078
  O      438.484     417.831     384.217
  C      437.762     417.703     381.980
  C      438.020     417.188     380.772
  O      436.790     418.369     373.427
  O      436.406     419.930     375.490
  H      437.480     418.252     372.745
  H      438.759     412.720     378.248
  H      440.406     416.401     383.511
  H      436.896     418.306     382.188
  H      437.341     417.388     379.940
  H      440.440     415.548     379.137
  H      438.136     414.048     379.846
  H      436.671     415.594     378.692
  H      438.753     415.612     376.434
  H      436.430     416.702     376.088
  H      436.931     417.889     377.318
  P      435.620     413.221     377.957
  C      435.854     411.768     380.108
  O      436.387     412.158     378.867
  O      435.079     412.367     376.705
  O      434.569     414.038     378.648
  H      435.798     412.041     376.124
  H      436.292     410.811     380.403
  H      434.753     411.644     380.053
  H      436.080     412.518     380.867
  H      439.953     421.407     374.364
  H      439.531     420.539     375.820
  H      438.400     421.672     375.119

 3  4  5  6  7  8  9  10  11  12  13  24  28  29  30  31  32 0
 6-311+G(2d,p)
 ****
 33  34 0
 6-311+G(2d,p)
 ****
 1  2  14  15  16  17  18  19  20  21  22  23  25  26  27 0
 3-21G
 ****
 35  36  37  38  39  40  41  42  43  44  45 0
 3-21G
 ****


