%nproc=1
%NoSave
%Mem=1900MB
#P OB98/GEN NMR

erre ene a

0 1
  C     -269.923    -428.735     148.323
  O     -269.564    -427.455     147.841
  H     -269.231    -429.009     149.126
  H     -269.845    -429.479     147.521
  H     -270.941    -428.713     148.718
  P     -270.437    -426.878     146.619
  C     -268.328    -425.848     145.557
  O     -269.612    -425.597     146.109
  C     -267.309    -424.828     146.069
  O     -267.680    -423.515     145.581
  C     -267.247    -424.748     147.603
  O     -265.893    -424.550     148.011
  C     -268.058    -423.506     147.929
  O     -267.685    -422.920     149.170
  C     -267.789    -422.628     146.702
  N     -269.697    -418.154     148.260
  C     -268.553    -418.808     148.565
  N     -268.114    -419.984     148.094
  C     -268.977    -420.491     147.174
  C     -270.184    -419.944     146.766
  C     -270.535    -418.724     147.366
  N     -271.721    -418.071     147.081
  N     -270.795    -420.777     145.856
  C     -269.973    -421.791     145.699
  N     -268.863    -421.668     146.488
  O     -271.878    -426.630     146.915
  O     -270.149    -427.955     145.468
  H     -267.444    -423.643     149.789
  H     -269.201    -428.189     145.437
  H     -267.906    -418.307     149.291
  H     -270.132    -422.642     145.035
  H     -266.853    -422.059     146.796
  H     -269.124    -423.768     147.981
  H     -267.652    -425.639     148.081
  H     -266.325    -425.070     145.647
  H     -268.376    -425.795     144.457
  H     -271.904    -417.190     147.539
  H     -272.360    -418.470     146.401
  H     -268.026    -426.862     145.842
  P     -265.029    -425.837     148.386
  C     -263.434    -424.733     150.118
  O     -263.552    -425.351     148.830
  O     -265.051    -426.967     147.422
  O     -265.660    -426.281     149.804
  H     -265.668    -427.255     149.845
  H     -262.414    -424.459     150.290
  H     -263.751    -425.421     150.874
  H     -264.048    -423.858     150.151

 6  7  8  9  10  11  12  13  14  15  25  28  32  33  34  35 0
 6-311+G(2d,p)
 ****
 36  39  40 0
 6-311+G(2d,p)
 ****
 1  2  3  4  5  16  17  18  19  20  21  22  23  24 0
 3-21G
 ****
 26  27  29  30  31  37  38  41  42  43  44  45  46  47 0
 3-21G
 ****
 48 0
 3-21G
 ****


