%nproc=1
%NoSave
%Mem=1900MB
#P OB98/GEN NMR

erre ene a

0 1
  C     -252.710     112.275      74.592
  O     -251.865     113.349      74.221
  P     -252.464     114.812      73.969
  C     -253.946     115.968      72.226
  O     -253.418     114.726      72.677
  C     -255.151     115.759      71.310
  O     -256.237     115.170      72.076
  C     -255.697     117.042      70.661
  O     -256.178     116.679      69.360
  C     -256.869     117.402      71.559
  O     -257.810     118.261      70.927
  C     -257.397     116.004      71.886
  N     -262.106     116.753      73.748
  C     -261.594     116.912      72.505
  N     -260.322     116.716      72.097
  C     -259.545     116.318      73.117
  C     -259.922     116.146      74.441
  C     -261.274     116.367      74.744
  N     -261.822     116.180      75.997
  N     -258.825     115.784      75.211
  C     -257.817     115.742      74.363
  N     -258.220     115.992      73.073
  O     -251.457     115.914      73.926
  O     -253.500     115.024      75.172
  H     -258.464     118.549      71.591
  H     -253.128     115.647      75.821
  H     -262.300     117.225      71.739
  H     -256.787     115.535      74.620
  H     -257.987     115.591      71.061
  H     -256.501     117.906      72.465
  H     -254.961     117.855      70.584
  H     -254.872     115.031      70.535
  H     -253.158     116.492      71.676
  H     -262.830     116.237      76.073
  H     -261.302     115.637      76.685
  H     -254.234     116.584      73.091
  P     -256.052     117.710      68.143
  C     -257.272     119.822      67.359
  O     -257.231     118.780      68.321
  O     -255.956     117.087      66.784
  O     -254.734     118.553      68.499
  H     -254.411     119.008      67.705
  H     -256.539     120.594      67.625
  H     -258.273     120.269      67.363
  H     -257.050     119.443      66.354
  H     -252.126     111.387      74.713
  H     -253.443     112.118      73.829
  H     -253.199     112.508      75.514

 3  4  5  6  7  8  9  10  11  12  22  25  29  30  31  32 0
 6-311+G(2d,p)
 ****
 33  36  37 0
 6-311+G(2d,p)
 ****
 1  2  13  14  15  16  17  18  19  20  21  23  24  26 0
 3-21G
 ****
 27  28  34  35  38  39  40  41  42  43  44  45  46  47  48 0
 3-21G
 ****


