%nproc=1
%NoSave
%Mem=1900MB
#P OB98/GEN NMR

erre ene a

0 1
  C     -218.563    -424.483    -425.665
  O     -217.347    -425.085    -425.259
  H     -218.362    -423.646    -426.338
  H     -219.162    -425.227    -426.200
  H     -219.123    -424.142    -424.790
  P     -216.319    -424.162    -424.444
  C     -217.592    -424.146    -422.176
  O     -216.463    -424.603    -422.908
  C     -217.643    -424.835    -420.819
  O     -218.172    -426.171    -420.962
  C     -216.284    -424.999    -420.148
  O     -215.867    -423.817    -419.488
  C     -216.599    -426.104    -419.152
  O     -217.318    -425.557    -418.029
  C     -217.512    -427.019    -419.975
  N     -215.100    -431.502    -419.414
  C     -215.685    -430.671    -418.525
  N     -216.306    -429.493    -418.748
  C     -216.282    -429.194    -420.060
  C     -215.717    -429.935    -421.085
  C     -215.108    -431.148    -420.719
  N     -214.495    -431.989    -421.623
  N     -215.859    -429.286    -422.293
  C     -216.529    -428.187    -422.009
  N     -216.800    -428.081    -420.669
  O     -217.009    -422.715    -424.471
  O     -214.918    -424.140    -424.960
  H     -216.745    -424.863    -417.645
  H     -216.339    -422.025    -424.297
  H     -215.656    -430.999    -417.486
  H     -216.841    -427.441    -422.730
  H     -218.292    -427.491    -419.371
  H     -215.701    -426.592    -418.756
  H     -215.523    -425.356    -420.856
  H     -218.332    -424.272    -420.175
  H     -218.500    -424.382    -422.742
  H     -213.934    -432.729    -421.240
  H     -214.361    -431.662    -422.570
  H     -217.525    -423.057    -422.049
  P     -214.500    -423.138    -419.978
  C     -215.870    -421.171    -420.989
  O     -214.812    -421.576    -420.127
  O     -214.371    -423.632    -421.496
  O     -213.299    -423.488    -419.168
  H     -213.440    -423.654    -421.783
  H     -215.950    -420.104    -420.979
  H     -216.790    -421.601    -420.651
  H     -215.666    -421.504    -421.985

 6  7  8  9  10  11  12  13  14  15  25  28  32  33  34  35 0
 6-311+G(2d,p)
 ****
 36  39  40 0
 6-311+G(2d,p)
 ****
 1  2  3  4  5  16  17  18  19  20  21  22  23  24 0
 3-21G
 ****
 26  27  29  30  31  37  38  41  42  43  44  45  46  47 0
 3-21G
 ****
 48 0
 3-21G
 ****


