%nproc=1
%NoSave
%Mem=1900MB
#P OB98/GEN NMR

erre ene a

0 1
  C       11.840    -665.404    -891.980
  O       12.891    -666.237    -892.400
  P       14.335    -665.548    -892.620
  C       13.704    -664.023    -894.630
  O       14.420    -665.174    -894.180
  C       13.966    -663.796    -896.120
  O       15.348    -663.425    -896.320
  C       13.737    -665.033    -896.980
  O       12.361    -665.231    -897.210
  C       14.537    -664.651    -898.240
  O       13.729    -663.887    -899.140
  C       15.687    -663.808    -897.680
  N       16.963    -664.489    -897.730
  C       17.530    -664.636    -899.010
  O       16.933    -664.212    -900.000
  N       18.734    -665.290    -899.130
  C       19.319    -665.751    -898.070
  N       20.497    -666.395    -898.250
  C       18.751    -665.643    -896.710
  C       17.578    -665.003    -896.620
  O       15.348    -666.781    -892.470
  O       14.638    -664.445    -891.660
  H       14.356    -663.407    -899.740
  H       16.227    -666.484    -892.170
  H       19.269    -666.060    -895.860
  H       17.091    -664.873    -895.650
  H       15.786    -662.859    -898.230
  H       14.855    -665.534    -898.790
  H       14.203    -665.920    -896.520
  H       13.334    -662.966    -896.450
  H       20.863    -666.472    -899.190
  H       14.047    -663.141    -894.080
  H       21.051    -666.774    -897.480
  H       12.646    -664.172    -894.440
  P       11.765    -666.677    -896.870
  C       12.712    -667.765    -899.020
  O       11.552    -667.363    -898.320
  O       10.264    -666.344    -896.430
  O       12.492    -667.503    -895.850
  H        9.811    -667.142    -896.110
  H       12.400    -668.364    -899.890
  H       13.329    -668.401    -898.370
  H       13.267    -666.878    -899.330
  H       10.947    -665.983    -891.874
  H       11.682    -664.635    -892.707
  H       12.091    -664.960    -891.040

 3  4  5  6  7  8  9  10  11  12  13  21  23  27  28  29  30  32 0
 6-311+G(2d,p)
 ****
 34  35 0
 6-311+G(2d,p)
 ****
 1  2  14  15  16  17  18  19  20  22  24  25  26 0
 3-21G
 ****
 31  33  36  37  38  39  40  41  42  43  44  45  46 0
 3-21G
 ****


