%nproc=1
%NoSave
%Mem=1900MB
#P OB98/GEN NMR

erre ene a

0 1
  C      149.671       9.499      -0.734
  O      150.443       8.316      -0.751
  H      150.110      10.217      -1.433
  H      149.676       9.937       0.269
  H      148.643       9.288      -1.042
  P      149.941       7.112       0.182
  C      151.751       7.663       1.966
  O      150.367       7.497       1.681
  C      152.055       7.141       3.367
  O      153.487       7.091       3.561
  C      151.520       8.021       4.493
  O      150.137       7.813       4.716
  C      152.397       7.577       5.657
  O      151.892       6.386       6.273
  C      153.738       7.284       4.972
  N      157.575       8.926       7.900
  C      156.853       7.783       7.912
  N      155.855       7.413       7.081
  C      155.634       8.364       6.157
  C      156.283       9.581       6.027
  C      157.302       9.853       6.952
  N      158.012      11.030       6.962
  N      155.741      10.307       4.983
  C      154.791       9.540       4.490
  N      154.695       8.356       5.164
  O      150.939       5.920      -0.203
  O      148.510       6.725       0.006
  H      151.588       5.805       5.547
  H      150.529       5.358      -0.887
  H      157.109       7.073       8.695
  H      154.145       9.799       3.658
  H      154.202       6.364       5.347
  H      152.447       8.346       6.430
  H      151.724       9.077       4.278
  H      151.664       6.120       3.453
  H      152.006       8.727       1.915
  H      152.335       7.119       1.216
  H      158.714      11.167       7.672
  H      157.744      11.770       6.328
  P      149.183       9.093       4.851
  C      148.305       8.822       7.283
  O      149.162       9.523       6.396
  O      147.723       8.488       4.604
  O      149.495      10.204       3.905
  H      147.430       8.666       3.690
  H      148.406       9.225       8.269
  H      148.571       7.786       7.292
  H      147.291       8.927       6.957

 6  7  8  9  10  11  12  13  14  15  25  28  32  33  34  35 0
 6-311+G(2d,p)
 ****
 36  37  40 0
 6-311+G(2d,p)
 ****
 1  2  3  4  5  16  17  18  19  20  21  22  23  24 0
 3-21G
 ****
 26  27  29  30  31  38  39 41  42  43  44  45  46  47  48 0
 3-21G
 ****


