%nproc=1
%NoSave
%Mem=1900MB
#P OB98/GEN NMR

erre ene a

0 1
  C      167.015      75.978    -156.469
  O      166.337      76.430    -157.653
  P      166.663      77.826    -158.373
  C      164.434      78.160    -159.626
  O      165.830      77.924    -159.744
  C      163.687      77.805    -160.919
  O      164.201      78.614    -162.032
  C      163.800      76.329    -161.337
  O      162.520      75.951    -161.868
  C      164.859      76.384    -162.425
  O      164.867      75.249    -163.274
  C      164.446      77.696    -163.124
  N      165.436      78.250    -164.044
  C      165.185      78.108    -165.420
  O      164.206      77.500    -165.835
  N      166.084      78.673    -166.301
  C      167.129      79.292    -165.864
  N      167.965      79.828    -166.794
  C      167.437      79.443    -164.435
  C      166.560      78.905    -163.585
  O      168.127      78.082    -158.552
  O      166.013      78.956    -157.441
  H      166.577      79.743    -157.452
  H      165.543      75.400    -163.963
  H      168.317      79.972    -164.107
  H      166.697      78.993    -162.513
  H      163.495      77.545    -163.640
  H      165.847      76.464    -161.954
  H      164.051      75.655    -160.514
  H      162.638      78.088    -160.792
  H      167.716      79.713    -167.772
  H      164.271      79.222    -159.403
  H      168.800      80.339    -166.572
  H      164.043      77.575    -158.787
  P      161.389      75.373    -160.885
  C      161.118      73.092    -162.106
  O      160.527      74.309    -161.711
  O      160.378      76.614    -160.780
  O      161.848      74.965    -159.519
  H      159.890      76.557    -159.936
  H      160.419      72.273    -161.911
  H      162.045      72.885    -161.573
  H      161.328      73.122    -163.184
  H      166.627      75.024    -156.178
  H      166.860      76.682    -155.679
  H      168.062      75.891    -156.669

 3  4  5  6  7  8  9  10  11  12  13  24  27  28  29  30  32 0
 6-311+G(2d,p)
 ****
 34  35 0
 6-311+G(2d,p)
 ****
 1  2  14  15  16  17  18  19  20  21  22  23  25  26 0
 3-21G
 ****
 31  33  36  37  38  39  40  41  42  43  44  45  46 0
 3-21G
 ****


