%nproc=1
%NoSave
%Mem=1900MB
#P OB98/GEN NMR

erre ene a

0 1
  C      499.471    -411.776    -319.162
  O      500.664    -412.326    -319.682
  H      499.721    -410.889    -318.572
  H      498.980    -412.506    -318.509
  H      498.796    -411.485    -319.973
  P      500.507    -413.540    -320.728
  C      501.831    -412.331    -322.651
  O      500.607    -412.869    -322.181
  C      501.611    -411.485    -323.899
  O      501.384    -412.366    -325.033
  C      500.405    -410.537    -323.799
  O      500.713    -409.334    -324.502
  C      499.313    -411.287    -324.544
  O      498.292    -410.409    -325.025
  C      500.127    -411.998    -325.634
  N      499.434    -413.166    -326.188
  C      498.636    -412.947    -327.317
  O      498.540    -411.817    -327.803
  N      497.940    -414.001    -327.855
  C      497.986    -415.161    -327.265
  N      497.251    -416.163    -327.832
  C      498.775    -415.429    -326.050
  C      499.471    -414.396    -325.568
  O      498.951    -413.891    -320.580
  O      501.428    -414.687    -320.488
  H      497.879    -409.962    -324.256
  H      498.377    -413.110    -320.561
  H      498.763    -416.409    -325.591
  H      500.085    -414.498    -324.688
  H      500.350    -411.315    -326.464
  H      498.841    -412.024    -323.888
  H      500.140    -410.310    -322.761
  H      502.532    -410.921    -324.112
  H      496.707    -415.930    -328.653
  H      502.537    -413.137    -322.877
  H      497.164    -417.085    -327.431
  H      502.264    -411.726    -321.845
  P      500.402    -407.918    -323.812
  C      502.880    -407.174    -323.707
  O      501.680    -407.440    -322.977
  O      499.098    -407.830    -323.095
  O      500.416    -406.914    -325.066
  H      499.678    -406.279    -324.943
  H      503.649    -406.865    -323.030
  H      502.699    -406.396    -324.419
  H      503.190    -408.061    -324.218

 6  7  8  9  10  11  12  13  14  15  16  26  30  31  32  33  35 0
 6-311+G(2d,p)
 ****
 37  38 0
 6-311+G(2d,p)
 ****
 1  2  3  4  5  17  18  19  20  21  22  23  24  25 0
 3-21G
 ****
 27  28  29  34  36  39  40  41  42  43  44  45  46 0
 3-21G
 ****


