%nproc=1
%NoSave
%Mem=1900MB
#P OB98/GEN NMR

erre ene a

0 1
  C      296.451    -342.648     186.775
  O      296.878    -343.769     187.526
  H      295.387    -342.745     186.543
  H      296.600    -341.745     187.377
  H      297.028    -342.558     185.852
  P      297.036    -345.161     186.744
  C      296.258    -346.614     188.751
  O      297.318    -346.278     187.864
  C      296.809    -347.271     190.016
  O      297.498    -348.497     189.640
  C      297.803    -346.398     190.802
  O      297.576    -346.595     192.197
  C      299.154    -346.995     190.434
  O      300.148    -346.758     191.425
  C      298.794    -348.466     190.262
  N      303.681    -349.866     190.102
  C      302.894    -349.453     191.122
  N      301.579    -349.148     191.086
  C      301.072    -349.375     189.864
  C      301.749    -349.801     188.730
  C      303.126    -350.036     188.884
  N      303.949    -350.392     187.837
  N      300.887    -349.854     187.648
  C      299.723    -349.453     188.113
  N      299.787    -349.145     189.444
  O      298.457    -344.986     186.022
  O      295.947    -345.476     185.773
  H      300.867    -347.412     191.312
  H      298.331    -344.554     185.156
  H      303.384    -349.342     192.088
  H      298.823    -349.332     187.529
  H      298.730    -349.002     191.216
  H      299.501    -346.558     189.486
  H      297.741    -345.329     190.561
  H      295.967    -347.562     190.651
  H      295.581    -347.313     188.253
  H      304.940    -350.430     188.018
  H      303.573    -350.417     186.906
  H      295.700    -345.704     189.006
  P      297.375    -345.289     193.107
  C      298.611    -346.163     195.231
  O      297.383    -345.732     194.647
  O      295.848    -344.891     192.845
  O      298.305    -344.165     192.766
  H      295.736    -343.921     192.888
  H      298.447    -346.422     196.256
  H      299.330    -345.373     195.173
  H      298.977    -347.018     194.702

 6  7  8  9  10  11  12  13  14  15  25  28  32  33  34  35 0
 6-311+G(2d,p)
 ****
 36  39  40 0
 6-311+G(2d,p)
 ****
 1  2  3  4  5  16  17  18  19  20  21  22  23  24 0
 3-21G
 ****
 26  27  29  30  31  37  38  41  42  43  44  45  46  47 0
 3-21G
 ****
 48 0
 3-21G
 ****


