%nproc=1
%NoSave
%Mem=1900MB
#P OB98/GEN NMR

erre ene a

0 1
  C      -99.993    -892.960     -91.487
  O     -101.023    -893.930     -91.633
  P     -100.967    -895.310     -90.845
  C     -103.449    -895.220     -89.979
  O     -102.060    -895.270     -89.690
  C     -104.191    -894.590     -88.796
  O     -103.871    -893.200     -88.685
  C     -105.702    -894.730     -88.926
  O     -106.173    -895.890     -88.269
  C     -106.203    -893.430     -88.342
  O     -106.242    -893.520     -86.906
  C     -105.118    -892.430     -88.790
  N     -105.193    -891.880     -90.154
  C     -106.295    -891.090     -90.500
  O     -107.198    -890.780     -89.719
  N     -106.321    -890.650     -91.806
  C     -105.351    -890.880     -92.746
  O     -105.501    -890.710     -93.961
  C     -104.118    -891.490     -92.243
  C     -104.094    -891.980     -90.999
  O      -99.574    -895.210     -90.043
  O     -101.043    -896.540     -91.693
  H     -106.527    -892.620     -86.588
  H      -98.885    -895.690     -90.508
  H     -107.166    -890.190     -92.104
  H     -103.274    -891.570     -92.923
  H     -103.203    -892.450     -90.615
  H     -105.037    -891.600     -88.095
  H     -107.224    -893.220     -88.675
  H     -105.974    -894.770     -89.997
  H     -103.850    -895.090     -87.870
  H     -103.835    -896.230     -90.179
  H     -103.619    -894.630     -90.891
  P     -107.241    -896.850     -88.979
  C     -106.206    -899.180     -88.746
  O     -106.366    -898.060     -89.591
  O     -108.169    -896.180     -89.923
  O     -108.013    -897.500     -87.742
  H     -108.870    -897.020     -87.591
  H     -105.764    -900.000     -89.332
  H     -107.153    -899.510     -88.340
  H     -105.514    -898.940     -87.927
  H     -100.216    -892.109     -92.096
  H      -99.059    -893.383     -91.793
  H      -99.930    -892.659     -90.462

 3  4  5  6  7  8  9  10  11  12  13  23  28  29  30  31  32 0
 6-311+G(2d,p)
 ****
 33  34 0
 6-311+G(2d,p)
 ****
 1  2  14  15  16  17  18  19  20  21  22  24  25  26  27 0
 3-21G
 ****
 35  36  37  38  39  40  41  42  43  44  45 0
 3-21G
 ****


