%nproc=1
%NoSave
%Mem=1900MB
#P OB98/GEN NMR

erre ene a

0 1
  C      406.360    -645.153    -222.554
  O      406.758    -643.951    -221.879
  P      406.352    -643.786    -220.336
  C      408.738    -642.794    -220.037
  O      407.372    -642.744    -219.662
  C      409.635    -642.881    -218.798
  O      409.459    -641.741    -217.930
  C      409.351    -644.104    -217.927
  O      410.008    -645.257    -218.417
  C      409.968    -643.667    -216.610
  O      411.400    -643.864    -216.650
  C      409.625    -642.182    -216.555
  N      407.593    -639.220    -212.985
  C      408.874    -639.222    -213.519
  N      409.731    -638.301    -213.041
  N      409.271    -640.063    -214.456
  C      408.293    -640.917    -214.849
  C      406.995    -641.022    -214.388
  C      406.579    -640.095    -213.358
  O      405.474    -640.054    -212.833
  N      406.316    -642.010    -215.034
  C      407.197    -642.518    -215.884
  N      408.413    -641.892    -215.801
  O      406.805    -645.185    -219.700
  O      404.906    -643.514    -220.098
  H      411.753    -643.224    -217.295
  H      406.249    -645.393    -218.924
  H      407.349    -638.557    -212.268
  H      406.988    -643.319    -216.579
  H      410.431    -641.580    -216.110
  H      409.591    -644.262    -215.755
  H      409.477    -637.590    -212.363
  H      408.262    -644.267    -217.805
  H      410.659    -638.261    -213.448
  H      410.684    -642.911    -219.125
  H      409.010    -641.904    -220.621
  H      408.900    -643.649    -220.705
  P      409.148    -646.314    -219.280
  C      411.164    -646.717    -220.869
  O      410.210    -647.277    -219.983
  O      408.589    -645.408    -220.475
  O      408.052    -646.984    -218.516
  H      407.708    -645.747    -220.750
  H      411.895    -647.493    -221.119
  H      411.693    -645.884    -220.393
  H      410.674    -646.369    -221.781
  H      406.698    -645.121    -223.569
  H      405.293    -645.236    -222.536
  H      406.791    -645.999    -222.061

 3  4  5  6  7  8  9  10  11  12  23  26  30  31 0
 6-311+G(2d,p)
 ****
 33  35  36  37  38 0
 6-311+G(2d,p)
 ****
 1  2  13  14  15  16  17  18  19  20  21  22  24  25 0
 3-21G
 ****
 27  28  29  32  34  39  40  41  42  43  44  45  46  47  48  49 0
 3-21G
 ****


