%nproc=1
%NoSave
%Mem=1900MB
#P OB98/GEN NMR

erre ene a

0 1
  C      -72.919      64.527    -205.798
  O      -72.937      63.674    -204.668
  P      -73.965      63.998    -203.481
  C      -76.279      63.498    -204.620
  O      -75.336      64.457    -204.176
  C      -77.651      63.776    -204.000
  O      -77.554      63.632    -202.556
  C      -78.205      65.179    -204.285
  O      -79.627      65.055    -204.412
  C      -77.848      65.944    -203.022
  O      -78.658      67.092    -202.829
  C      -78.038      64.852    -201.963
  N      -77.337      65.128    -200.708
  C      -78.065      65.049    -199.527
  O      -79.265      64.786    -199.475
  N      -77.364      65.320    -198.378
  C      -76.061      65.716    -198.305
  O      -75.488      65.962    -197.250
  C      -75.356      65.827    -199.590
  C      -76.013      65.522    -200.710
  O      -73.349      65.355    -202.900
  O      -74.103      62.893    -202.490
  H      -72.966      65.924    -203.590
  H      -79.591      66.810    -202.831
  H      -77.861      65.232    -197.507
  H      -74.322      66.151    -199.575
  H      -75.514      65.598    -201.670
  H      -79.107      64.707    -201.762
  H      -76.804      66.269    -203.076
  H      -77.787      65.618    -205.193
  H      -78.350      63.008    -204.356
  H      -75.950      62.498    -204.324
  H      -76.333      63.524    -205.714
  P      -80.320      65.619    -205.751
  C      -81.104      63.506    -207.082
  O      -80.133      64.511    -206.891
  O      -79.256      66.746    -206.168
  O      -81.697      66.169    -205.566
  H      -78.339      66.422    -206.153
  H      -80.973      63.079    -208.079
  H      -82.116      63.910    -207.005
  H      -80.965      62.715    -206.338
  H      -72.185      64.180    -206.495
  H      -72.675      65.522    -205.490
  H      -73.883      64.524    -206.263

 3  4  5  6  7  8  9  10  11  12  13  24  28  29  30  31  32 0
 6-311+G(2d,p)
 ****
 33  34 0
 6-311+G(2d,p)
 ****
 1  2  14  15  16  17  18  19  20  21  22  23  25  26  27 0
 3-21G
 ****
 35  36  37  38  39  40  41  42  43  44  45 0
 3-21G
 ****


