%nproc=1
%NoSave
%Mem=1900MB
#P OB98/GEN NMR

erre ene a

0 1
  C     -770.850     331.512    -102.432
  O     -769.821     331.133    -101.528
  P     -769.801     329.708    -100.808
  C     -767.327     330.211    -100.179
  O     -768.585     329.707     -99.746
  C     -766.270     330.223     -99.058
  O     -766.154     328.892     -98.508
  C     -764.889     330.581     -99.649
  O     -764.542     331.938     -99.842
  C     -763.909     329.758     -98.821
  O     -763.285     330.527     -97.785
  C     -764.757     328.633     -98.234
  N     -761.504     324.755     -98.022
  C     -761.652     325.804     -97.139
  N     -760.702     325.936     -96.205
  N     -762.653     326.660     -97.209
  C     -763.475     326.456     -98.263
  C     -763.425     325.454     -99.202
  C     -762.346     324.490     -99.091
  O     -762.126     323.587     -99.908
  N     -764.382     325.598    -100.176
  C     -764.968     326.729     -99.863
  N     -764.432     327.316     -98.738
  O     -770.008     328.501    -101.668
  O     -771.095     329.833     -99.837
  H     -762.484     330.059     -97.503
  H     -771.491     328.942     -99.765
  H     -760.683     324.178     -97.974
  H     -765.778     327.206    -100.426
  H     -764.650     328.605     -97.148
  H     -763.096     329.406     -99.455
  H     -759.860     325.392     -96.212
  H     -764.852     330.138    -100.646
  H     -760.700     326.784     -95.638
  H     -766.576     330.868     -98.239
  H     -767.491     331.228    -100.567
  H     -766.962     329.600    -101.017
  P     -764.057     332.584    -101.232
  C     -765.914     334.297    -100.856
  O     -764.582     334.113    -101.273
  O     -764.943     331.863    -102.342
  O     -762.601     332.418    -101.536
  H     -764.503     331.929    -103.215
  H     -766.274     335.277    -101.212
  H     -765.975     334.277     -99.756
  H     -766.583     333.514    -101.248
  H     -770.662     332.502    -102.792
  H     -771.794     331.489    -101.928
  H     -770.869     330.831    -103.257

 3  4  5  6  7  8  9  10  11  12  23  26  30  31 0
 6-311+G(2d,p)
 ****
 33  35  36  37  38 0
 6-311+G(2d,p)
 ****
 1  2  13  14  15  16  17  18  19  20  21  22  24  25 0
 3-21G
 ****
 27  28  29  32  34  39  40  41  42  43  44  45  46  47  48  49 0
 3-21G
 ****


