%nproc=1
%NoSave
%Mem=1900MB
#P OB98/GEN NMR

erre ene a

0 1
  C     1253.186    -669.247     475.371
  O     1254.022    -668.536     474.468
  H     1253.505    -670.311     475.378
  H     1252.150    -669.209     475.035
  H     1253.290    -668.843     476.372
  P     1253.695    -666.968     474.286
  C     1255.447    -666.048     475.974
  O     1255.068    -666.182     474.605
  C     1256.429    -664.890     476.145
  O     1257.660    -665.158     475.406
  C     1255.915    -663.541     475.658
  O     1255.103    -662.917     476.644
  C     1257.222    -662.782     475.404
  O     1257.763    -662.265     476.628
  C     1258.121    -663.891     474.832
  N     1260.982    -664.570     470.708
  C     1261.309    -664.565     472.042
  N     1262.631    -664.751     472.333
  N     1260.468    -664.416     473.029
  C     1259.198    -664.262     472.597
  C     1258.721    -664.218     471.286
  C     1259.675    -664.409     470.223
  O     1259.417    -664.489     469.035
  N     1257.359    -664.017     471.251
  C     1257.007    -663.878     472.539
  N     1258.101    -663.971     473.384
  O     1252.777    -666.634     475.573
  O     1253.020    -666.601     473.015
  H     1257.669    -662.932     477.308
  H     1252.157    -665.921     475.330
  H     1261.679    -664.701     470.017
  H     1256.004    -663.690     472.887
  H     1259.168    -663.756     475.143
  H     1257.067    -661.952     474.712
  H     1263.340    -664.522     471.644
  H     1255.359    -663.645     474.707
  H     1262.895    -664.730     473.326
  H     1256.708    -664.823     477.207
  H     1255.926    -666.977     476.313
  H     1254.553    -665.874     476.583
  P     1253.880    -662.006     476.117
  C     1252.210    -663.998     476.352
  O     1252.539    -662.638     476.715
  O     1253.799    -662.340     474.557
  O     1254.049    -660.535     476.361
  H     1253.273    -661.654     474.090
  H     1251.293    -664.281     476.824
  H     1252.993    -664.652     476.673
  H     1252.101    -664.067     475.290

 6  7  8  9  10  11  12  13  14  15  26  29  33  34 0
 6-311+G(2d,p)
 ****
 36  38  39  40  41 0
 6-311+G(2d,p)
 ****
 1  2  3  4  5  16  17  18  19  20  21  22  23  24  25 0
 3-21G
 ****
 27  28  30  31  32  35  37  42  43  44  45  46  47 0
 3-21G
 ****
 48  49 0
 3-21G
 ****


