%nproc=1
%NoSave
%Mem=1900MB
#P OB98/GEN NMR

erre ene a

0 1
  C      -19.466     282.425     397.294
  O      -18.063     282.306     397.310
  P      -17.117     283.054     398.352
  C      -15.854     284.827     396.904
  O      -15.813     283.576     397.573
  C      -14.438     285.304     396.537
  O      -14.536     286.609     395.916
  C      -13.559     285.465     397.788
  O      -12.225     284.997     397.624
  C      -13.744     286.932     398.147
  O      -12.713     287.452     398.972
  C      -13.878     287.576     396.767
  N      -13.829     292.562     397.739
  C      -12.769     291.677     397.688
  N      -11.579     292.144     398.122
  N      -12.884     290.436     397.275
  C      -14.155     290.079     396.979
  C      -15.279     290.868     396.992
  C      -15.137     292.245     397.417
  O      -16.068     293.031     397.587
  N      -16.411     290.151     396.693
  C      -15.971     288.917     396.535
  N      -14.614     288.821     396.728
  O      -16.926     282.399     399.678
  O      -17.931     284.429     398.600
  H      -11.884     287.409     398.466
  H      -17.780     284.689     399.531
  H      -13.696     293.481     398.146
  H      -16.597     288.060     396.308
  H      -12.898     287.790     396.329
  H      -14.678     287.022     398.708
  H      -11.497     293.039     398.582
  H      -13.943     284.849     398.611
  H      -10.861     291.458     398.330
  H      -14.005     284.614     395.806
  H      -16.323     285.534     397.597
  H      -16.487     284.768     396.008
  P      -11.432     283.916     398.485
  C      -11.016     285.578     400.394
  O      -10.428     284.681     399.471
  O      -10.440     283.202     397.453
  O      -12.297     282.895     399.156
  H      -10.396     282.249     397.643
  H      -10.232     286.223     400.800
  H      -11.472     285.015     401.212
  H      -11.770     286.200     399.903
  H      -19.866     281.827     396.502
  H      -19.735     283.449     397.138
  H      -19.863     282.090     398.229

 3  4  5  6  7  8  9  10  11  12  23  26  30  31 0
 6-311+G(2d,p)
 ****
 33  35  36  37  38 0
 6-311+G(2d,p)
 ****
 1  2  13  14  15  16  17  18  19  20  21  22  24  25 0
 3-21G
 ****
 27  28  29  32  34  39  40  41  42  43  44  45  46  47  48  49 0
 3-21G
 ****


