%nproc=1
%NoSave
%Mem=1900MB
#P OB98/GEN NMR

erre ene a

0 1
  C      -53.972    -214.043     -65.318
  O      -52.589    -213.917     -64.998
  P      -51.621    -215.173     -65.244
  C      -50.804    -215.942     -62.922
  O      -51.739    -216.153     -63.977
  C      -50.569    -217.237     -62.141
  O      -51.807    -217.826     -61.699
  C      -49.880    -218.315     -62.965
  O      -48.503    -218.023     -63.138
  C      -50.184    -219.558     -62.135
  O      -49.257    -219.687     -61.047
  C      -51.599    -219.251     -61.595
  N      -52.649    -219.988     -62.280
  C      -52.606    -221.381     -62.151
  O      -51.698    -221.918     -61.513
  N      -53.588    -222.128     -62.752
  C      -54.525    -221.541     -63.436
  N      -55.472    -222.328     -64.004
  C      -54.595    -220.074     -63.609
  C      -53.634    -219.370     -63.022
  O      -50.230    -214.845     -65.670
  O      -52.394    -215.993     -66.391
  H      -49.486    -220.523     -60.598
  H      -51.738    -216.470     -66.935
  H      -55.397    -219.630     -64.182
  H      -53.604    -218.288     -63.099
  H      -51.660    -219.494     -60.529
  H      -50.110    -220.472     -62.738
  H      -50.366    -218.399     -63.944
  H      -49.956    -216.994     -61.261
  H      -55.393    -223.329     -63.883
  H      -51.185    -215.164     -62.252
  H      -56.265    -221.962     -64.516
  H      -49.869    -215.563     -63.352
  P      -48.056    -217.376     -64.532
  C      -45.674    -218.407     -64.467
  O      -46.909    -218.295     -65.154
  O      -47.261    -216.058     -64.069
  O      -49.179    -217.031     -65.456
  H      -47.401    -215.348     -64.725
  H      -45.143    -219.282     -64.836
  H      -45.829    -218.512     -63.391
  H      -45.067    -217.519     -64.667
  H      -54.474    -213.124     -65.097
  H      -54.402    -214.833     -64.738
  H      -54.078    -214.266     -66.359

 3  4  5  6  7  8  9  10  11  12  13  23  27  28  29  30  32 0
 6-311+G(2d,p)
 ****
 34  35 0
 6-311+G(2d,p)
 ****
 1  2  14  15  16  17  18  19  20  21  22  24  25  26 0
 3-21G
 ****
 31  33  36  37  38  39  40  41  42  43  44  45  46 0
 3-21G
 ****


