%nproc=1
%NoSave
%Mem=1900MB
#P OB98/GEN NMR

erre ene a

0 1
  C      375.984      35.691     -79.605
  O      375.638      36.969     -79.102
  H      375.088      35.163     -79.939
  H      376.661      35.819     -80.452
  H      376.492      35.108     -78.828
  P      374.612      37.006     -77.867
  C      373.098      39.107     -78.067
  O      374.312      38.559     -77.558
  C      373.091      40.626     -77.853
  O      373.011      40.891     -76.432
  C      374.319      41.354     -78.418
  O      373.915      42.351     -79.361
  C      374.924      42.061     -77.208
  O      375.390      43.378     -77.502
  C      373.775      42.079     -76.203
  N      376.161      44.999     -72.774
  C      375.465      45.317     -73.885
  N      374.766      44.506     -74.700
  C      374.804      43.237     -74.243
  C      375.444      42.766     -73.112
  C      376.178      43.712     -72.367
  N      376.936      43.378     -71.264
  N      375.276      41.397     -72.979
  C      374.560      41.043     -74.036
  N      374.279      42.117     -74.843
  O      375.515      36.550     -76.627
  O      373.404      36.147     -78.021
  H      376.142      43.277     -78.122
  H      375.041      35.862     -76.115
  H      375.482      46.371     -74.164
  H      374.269      40.031     -74.292
  H      373.114      42.949     -76.342
  H      375.766      41.463     -76.836
  H      375.042      40.677     -78.879
  H      372.168      41.028     -78.305
  H      372.248      38.668     -77.530
  H      377.509      44.088     -70.857
  H      377.029      42.400     -71.025
  H      373.008      38.859     -79.125
  P      374.343      42.100     -80.899
  C      375.288      44.395     -81.701
  O      374.182      43.497     -81.675
  O      373.140      41.215     -81.468
  O      375.665      41.412     -81.054
  H      373.447      40.660     -82.209
  H      375.022      45.272     -82.253
  H      376.123      43.918     -82.170
  H      375.549      44.669     -80.700

 6  7  8  9  10  11  12  13  14  15  25  28  32  33  34  35 0
 6-311+G(2d,p)
 ****
 36  39  40 0
 6-311+G(2d,p)
 ****
 1  2  3  4  5  16  17  18  19  20  21  22  23  24 0
 3-21G
 ****
 26  27  29  30  31  37  38  41  42  43  44  45  46  47  48 0
 3-21G
 ****


