%nproc=1
%NoSave
%Mem=1900MB
#P OB98/GEN NMR

erre ene a

0 1
  C      108.368       0.135    -116.334
  O      107.669       0.350    -115.120
  P      106.643      -0.790    -114.648
  C      104.340       0.346    -115.056
  O      105.319      -0.577    -115.525
  C      103.031      -0.377    -114.752
  O      102.724      -1.306    -115.806
  C      103.062      -1.201    -113.476
  O      102.930      -0.367    -112.342
  C      101.881      -2.139    -113.695
  O      100.653      -1.535    -113.260
  C      101.887      -2.333    -115.230
  N      102.327      -3.661    -115.623
  C      101.522      -4.723    -115.190
  O      100.524      -4.501    -114.503
  N      101.894      -6.005    -115.512
  C      102.973      -6.206    -116.202
  N      103.290      -7.496    -116.498
  C      103.858      -5.117    -116.660
  C      103.482      -3.882    -116.334
  O      106.210      -0.308    -113.188
  O      107.206      -2.174    -114.647
  H       99.974      -2.239    -113.325
  H      105.935      -1.066    -112.639
  H      104.747      -5.339    -117.232
  H      104.074      -3.023    -116.628
  H      100.880      -2.175    -115.637
  H      101.993      -3.072    -113.135
  H      103.990      -1.782    -113.416
  H      102.228       0.371    -114.709
  H      102.667      -8.221    -116.164
  H      104.156       1.100    -115.827
  H      104.096      -7.756    -117.047
  H      104.724       0.847    -114.162
  P      103.517      -0.902    -110.952
  C      101.624      -2.366    -110.031
  O      102.843      -2.341    -110.747
  O      102.727      -0.006    -109.884
  O      104.995      -0.829    -110.763
  H      103.074      -0.173    -108.988
  H      101.197      -3.369    -110.098
  H      100.915      -1.651    -110.456
  H      101.805      -2.130    -108.978
  H      109.013       0.967    -116.527
  H      107.667       0.034    -117.136
  H      108.952      -0.758    -116.256

 3  4  5  6  7  8  9  10  11  12  13  21  23  27  28  29  30  32 0
 6-311+G(2d,p)
 ****
 34  35 0
 6-311+G(2d,p)
 ****
 1  2  14  15  16  17  18  19  20  22  24  25  26 0
 3-21G
 ****
 31  33  36  37  38  39  40  41  42  43  44  45  46 0
 3-21G
 ****


