%nproc=1
%NoSave
%Mem=1900MB
#P OB98/GEN NMR

erre ene a

0 1
  C      238.527     -19.032     376.508
  O      239.910     -18.760     376.756
  P      240.224     -17.590     377.809
  C      240.945     -19.281     379.640
  O      240.091     -18.204     379.287
  C      241.978     -18.839     380.676
  O      241.372     -18.191     381.811
  C      242.798     -19.990     381.242
  O      243.822     -20.351     380.335
  C      243.329     -19.386     382.536
  O      244.519     -18.606     382.301
  C      242.172     -18.480     382.986
  N      241.672     -19.254     387.973
  C      242.754     -18.778     387.252
  N      243.846     -18.439     387.966
  N      242.760     -18.647     385.952
  C      241.597     -19.025     385.369
  C      240.448     -19.482     385.975
  C      240.456     -19.626     387.414
  O      239.519     -20.021     388.098
  N      239.451     -19.707     385.059
  C      240.040     -19.503     383.893
  N      241.322     -19.026     384.027
  O      238.954     -16.623     377.675
  O      241.498     -16.866     377.528
  H      244.290     -17.841     381.743
  H      239.219     -15.786     377.249
  H      241.726     -19.342     388.972
  H      239.578     -19.661     382.931
  H      242.542     -17.519     383.368
  H      243.608     -20.156     383.261
  H      243.910     -18.510     388.971
  H      242.145     -20.844     381.466
  H      244.648     -18.082     387.458
  H      242.643     -18.117     380.189
  H      241.455     -19.663     378.749
  H      240.331     -20.105     380.025
  P      243.905     -21.883     379.865
  C      242.648     -21.884     377.594
  O      242.609     -22.183     378.975
  O      243.639     -22.692     381.223
  O      245.210     -22.274     379.255
  H      244.272     -23.431     381.291
  H      241.990     -22.576     377.065
  H      243.660     -21.977     377.188
  H      242.290     -20.863     377.440
  H      238.442     -19.825     375.795
  H      238.054     -18.153     376.122
  H      238.051     -19.321     377.422

 3  4  5  6  7  8  9  10  11  12  23  26  30  31 0
 6-311+G(2d,p)
 ****
 33  35  36  37  38 0
 6-311+G(2d,p)
 ****
 1  2  13  14  15  16  17  18  19  20  21  22  24  25 0
 3-21G
 ****
 27  28  29  32  34  39  40  41  42  43  44  45  46  47  48  49 0
 3-21G
 ****


