%nproc=1
%NoSave
%Mem=1900MB
#P OB98/GEN NMR

erre ene a

0 1
  C     -288.396      65.828      81.761
  O     -288.987      66.377      82.946
  P     -290.369      67.192      82.931
  C     -291.937      65.716      84.356
  O     -291.592      66.165      83.047
  C     -293.273      66.303      84.819
  O     -294.339      65.904      83.936
  C     -293.715      65.861      86.210
  O     -292.988      66.537      87.217
  C     -295.204      66.196      86.165
  O     -295.430      67.587      86.446
  C     -295.560      65.867      84.699
  N     -296.237      64.584      84.564
  C     -297.355      64.555      83.719
  O     -297.759      65.586      83.183
  N     -298.001      63.356      83.528
  C     -297.614      62.302      84.181
  N     -298.288      61.142      83.945
  C     -296.499      62.310      85.145
  C     -295.863      63.473      85.284
  O     -290.493      68.160      81.800
  O     -290.406      67.971      84.335
  H     -295.017      68.089      85.720
  H     -290.895      68.809      84.224
  H     -296.226      61.420      85.689
  H     -295.024      63.568      85.965
  H     -296.203      66.649      84.277
  H     -295.786      65.620      86.892
  H     -293.591      64.775      86.312
  H     -293.195      67.397      84.775
  H     -299.044      61.167      83.272
  H     -291.144      66.032      85.045
  H     -298.064      60.266      84.398
  H     -291.982      64.622      84.351
  P     -292.376      65.713      88.449
  C     -289.956      65.690      87.596
  O     -291.096      64.913      87.910
  O     -293.355      64.895      89.226
  O     -291.717      66.844      89.372
  H     -291.772      66.561      90.305
  H     -289.072      65.050      87.636
  H     -289.831      66.513      88.306
  H     -290.056      66.090      86.584
  H     -287.483      65.331      82.015
  H     -288.192      66.616      81.066
  H     -289.072      65.128      81.317

 3  4  5  6  7  8  9  10  11  12  13  23  27  28  29  30  32 0
 6-311+G(2d,p)
 ****
 34  35 0
 6-311+G(2d,p)
 ****
 1  2  14  15  16  17  18  19  20  21  22  24  25  26 0
 3-21G
 ****
 31  33  36  37  38  39  40  41  42  43  44  45  46 0
 3-21G
 ****


