%nproc=1
%NoSave
%Mem=1900MB
#P OB98/GEN NMR

erre ene a

0 1
  C      266.044      68.549      94.241
  O      264.988      68.943      95.099
  P      263.512      69.176      94.530
  C      263.732      66.822      93.389
  O      263.267      68.153      93.332
  C      262.735      65.915      92.656
  O      261.545      65.739      93.452
  C      262.318      66.511      91.312
  O      263.121      65.989      90.265
  C      260.859      66.111      91.211
  O      260.739      64.754      90.746
  C      260.405      66.214      92.687
  N      260.028      67.542      93.208
  C      258.828      68.122      92.809
  O      258.025      67.580      92.055
  N      258.587      69.383      93.293
  C      259.392      70.075      94.152
  O      259.291      71.274      94.383
  C      260.491      69.307      94.743
  C      260.770      68.106      94.236
  O      263.628      70.590      93.792
  O      262.422      69.164      95.551
  H      259.827      64.468      90.931
  H      263.287      71.304      94.361
  H      257.787      69.866      92.897
  H      261.071      69.766      95.533
  H      261.605      67.535      94.633
  H      259.565      65.539      92.887
  H      260.331      66.729      90.487
  H      262.381      67.605      91.347
  H      263.193      64.929      92.510
  H      263.840      66.506      94.432
  H      264.720      66.749      92.925
  P      263.211      66.774      88.873
  C      265.487      67.818      89.419
  O      264.117      68.063      89.173
  O      261.905      67.050      88.204
  O      264.150      65.831      87.981
  H      263.599      65.270      87.397
  H      266.019      68.773      89.429
  H      265.910      67.181      88.637
  H      265.606      67.337      90.395
  H      266.945      68.446      94.809
  H      266.183      69.291      93.482
  H      265.802      67.612      93.784

 3  4  5  6  7  8  9  10  11  12  13  23  28  29  30  31  32 0
 6-311+G(2d,p)
 ****
 33  34 0
 6-311+G(2d,p)
 ****
 1  2  14  15  16  17  18  19  20  21  22  24  25  26  27 0
 3-21G
 ****
 35  36  37  38  39  40  41  42  43  44  45 0
 3-21G
 ****


