%nproc=1
%NoSave
%Mem=1900MB
#P OB98/GEN NMR

erre ene a

0 1
  C     -137.415     114.653     -59.487
  O     -137.572     115.688     -60.464
  P     -139.040     115.928     -61.061
  C     -138.905     118.518     -60.947
  O     -139.082     117.371     -61.764
  C     -138.726     119.787     -61.793
  O     -137.372     119.870     -62.318
  C     -139.671     119.860     -62.995
  O     -139.950     121.238     -63.267
  C     -138.820     119.305     -64.120
  O     -139.332     119.669     -65.402
  C     -137.463     119.905     -63.757
  N     -133.887     120.101     -67.310
  C     -134.880     121.008     -66.994
  N     -134.899     122.154     -67.709
  N     -135.771     120.812     -66.058
  C     -135.606     119.636     -65.405
  C     -134.671     118.653     -65.629
  C     -133.705     118.874     -66.683
  O     -132.814     118.098     -67.017
  N     -134.842     117.594     -64.771
  C     -135.883     117.938     -64.037
  N     -136.358     119.181     -64.358
  O     -139.932     116.130     -59.746
  O     -139.549     114.796     -61.890
  H     -138.680     119.369     -66.072
  H     -140.498     115.350     -59.610
  H     -133.233     120.298     -68.048
  H     -136.331     117.326     -63.268
  H     -137.371     120.949     -64.081
  H     -138.792     118.208     -64.061
  H     -134.209     122.390     -68.406
  H     -140.614     119.319     -62.872
  H     -135.589     122.856     -67.469
  H     -138.880     120.660     -61.148
  H     -138.034     118.388     -60.300
  H     -139.763     118.607     -60.272
  P     -141.209     121.887     -62.520
  C     -139.910     124.053     -61.918
  O     -141.006     123.474     -62.599
  O     -140.943     121.552     -60.976
  O     -142.536     121.383     -62.981
  H     -141.783     121.537     -60.484
  H     -139.133     124.305     -62.644
  H     -139.497     123.383     -61.159
  H     -140.248     124.972     -61.429
  H     -136.391     114.605     -59.179
  H     -137.704     113.714     -59.912
  H     -138.033     114.866     -58.640

 3  4  5  6  7  8  9  10  11  12  23  26  30  31 0
 6-311+G(2d,p)
 ****
 33  35  36  37  38 0
 6-311+G(2d,p)
 ****
 1  2  13  14  15  16  17  18  19  20  21  22  24  25 0
 3-21G
 ****
 27  28  29  32  34  39  40  41  42  43  44  45  46  47  48  49 0
 3-21G
 ****


