%nproc=1
%NoSave
%Mem=1900MB
#P OB98/GEN NMR

erre ene a

0 1
  C      295.927     166.258    -487.865
  O      296.803     166.687    -486.815
  P      296.428     168.070    -486.077
  C      296.921     169.771    -487.973
  O      297.319     169.247    -486.712
  C      298.088     170.472    -488.693
  O      298.543     171.625    -487.938
  C      299.298     169.559    -488.931
  O      299.889     169.957    -490.165
  C      300.228     169.941    -487.785
  O      301.572     169.576    -488.079
  C      299.957     171.466    -487.696
  N      300.365     172.030    -486.418
  C      301.327     173.043    -486.441
  O      301.863     173.375    -487.513
  N      301.709     173.639    -485.260
  C      301.204     173.218    -484.139
  N      301.613     173.837    -483.008
  C      300.222     172.111    -484.061
  C      299.847     171.585    -485.210
  O      297.033     167.882    -484.604
  O      294.954     168.337    -486.033
  H      302.150     169.891    -487.348
  H      296.362     168.104    -483.936
  H      299.839     171.777    -483.097
  H      299.137     170.765    -485.255
  H      300.501     171.995    -488.490
  H      299.926     169.441    -486.856
  H      299.040     168.501    -488.951
  H      297.709     170.832    -489.652
  H      302.284     174.594    -483.093
  H      296.108     170.484    -487.824
  H      301.294     173.590    -482.079
  H      296.516     168.962    -488.581
  P      300.222     168.825    -491.241
  C      302.472     169.929    -491.838
  O      301.184     169.536    -492.316
  O      298.841     168.768    -492.081
  O      300.632     167.472    -490.760
  H      298.883     168.044    -492.731
  H      303.059     170.286    -492.687
  H      302.981     169.077    -491.388
  H      302.369     170.750    -491.116
  H      296.283     165.334    -488.271
  H      295.903     167.000    -488.635
  H      294.941     166.119    -487.473

 3  4  5  6  7  8  9  10  11  12  13  21  23  27  28  29  30  32 0
 6-311+G(2d,p)
 ****
 34  35 0
 6-311+G(2d,p)
 ****
 1  2  14  15  16  17  18  19  20  22  24  25  26 0
 3-21G
 ****
 31  33  36  37  38  39  40  41  42  43  44  45  46 0
 3-21G
 ****


