%nproc=1
%NoSave
%Mem=1900MB
#P OB98/GEN NMR

erre ene a

0 1
  C      157.868     670.084      45.150
  O      158.057     668.701      44.889
  P      159.502     668.077      45.201
  C      159.005     667.188      47.590
  O      159.674     668.161      46.794
  C      160.009     666.225      48.219
  O      160.970     666.958      49.006
  C      159.398     665.205      49.167
  O      158.850     664.095      48.478
  C      160.623     664.785      49.966
  O      161.400     663.844      49.204
  C      161.382     666.107      50.107
  N      163.191     667.072      54.793
  C      163.657     666.301      53.791
  N      163.112     666.085      52.578
  C      161.945     666.737      52.454
  C      161.325     667.534      53.409
  C      162.002     667.705      54.626
  N      161.542     668.520      55.633
  N      160.134     668.034      52.920
  C      160.042     667.559      51.698
  N      161.114     666.778      51.367
  O      160.506     669.205      44.661
  O      159.763     666.747      44.579
  H      161.740     664.319      48.427
  H      161.375     668.809      44.459
  H      164.600     665.796      53.985
  H      159.224     667.760      51.017
  H      162.467     665.976      50.031
  H      160.368     664.295      50.911
  H      158.667     665.673      49.840
  H      160.551     665.723      47.409
  H      158.318     666.620      46.955
  H      162.169     668.733      56.395
  H      160.767     669.139      55.429
  H      158.425     667.699      48.364
  P      157.693     663.269      49.232
  C      155.740     664.103      47.735
  O      156.355     664.121      49.008
  O      158.042     663.495      50.780
  O      157.633     661.828      48.863
  H      157.687     662.763      51.316
  H      154.711     664.460      47.834
  H      155.724     663.093      47.319
  H      156.280     664.771      47.052
  H      156.866     670.361      44.897
  H      158.555     670.655      44.561
  H      158.041     670.278      46.188

 3  4  5  6  7  8  9  10  11  12  22  25  29  30  31  32 0
 6-311+G(2d,p)
 ****
 33  36  37 0
 6-311+G(2d,p)
 ****
 1  2  13  14  15  16  17  18  19  20  21  23  24  26 0
 3-21G
 ****
 27  28  34  35  38  39  40  41  42  43  44  45  46  47  48 0
 3-21G
 ****


