%nproc=1
%NoSave
%Mem=1900MB
#P OB98/GEN NMR

erre ene a

0 1
  C      255.043    -277.868    -163.450
  O      256.025    -276.826    -163.535
  P      257.210    -276.824    -162.451
  C      259.314    -277.568    -163.796
  O      258.285    -277.935    -162.885
  C      260.614    -278.286    -163.454
  O      260.437    -279.719    -163.443
  C      261.728    -278.029    -164.457
  O      262.308    -276.754    -164.245
  C      262.682    -279.188    -164.186
  O      263.654    -278.858    -163.186
  C      261.732    -280.310    -163.685
  N      261.640    -281.424    -164.610
  C      262.473    -282.520    -164.331
  O      263.239    -282.487    -163.373
  N      262.424    -283.607    -165.170
  C      261.640    -283.592    -166.214
  N      261.647    -284.694    -167.003
  C      260.768    -282.457    -166.546
  C      260.822    -281.409    -165.710
  O      256.519    -277.459    -161.158
  O      257.765    -275.469    -162.173
  H      263.163    -278.806    -162.343
  H      256.903    -277.074    -160.352
  H      260.138    -282.479    -167.426
  H      260.210    -280.526    -165.883
  H      262.080    -280.693    -162.716
  H      263.233    -279.473    -165.087
  H      261.332    -278.110    -165.484
  H      260.933    -277.965    -162.454
  H      262.256    -285.458    -166.738
  H      259.468    -276.485    -163.783
  H      261.079    -284.786    -167.840
  H      258.975    -277.826    -164.818
  P      262.490    -275.794    -165.509
  C      260.668    -274.071    -164.918
  O      261.031    -275.152    -165.752
  O      262.584    -276.843    -166.719
  O      263.634    -274.843    -165.493
  H      262.796    -276.380    -167.550
  H      259.764    -273.594    -165.316
  H      261.476    -273.317    -164.897
  H      260.462    -274.427    -163.903
  H      254.321    -277.742    -164.230
  H      254.553    -277.820    -162.500
  H      255.522    -278.819    -163.557

 3  4  5  6  7  8  9  10  11  12  13  21  23  27  28  29  30  32 0
 6-311+G(2d,p)
 ****
 34  35 0
 6-311+G(2d,p)
 ****
 1  2  14  15  16  17  18  19  20  22  24  25  26 0
 3-21G
 ****
 31  33  36  37  38  39  40  41  42  43  44  45  46 0
 3-21G
 ****


