%nproc=1
%NoSave
%Mem=1900MB
#P OB98/GEN NMR

erre ene a

0 1
  C      122.679    -151.194      73.919
  O      123.476    -150.031      73.656
  P      125.064    -150.166      73.843
  C      125.364    -150.927      71.356
  O      125.540    -151.219      72.731
  C      126.716    -150.652      70.698
  O      127.581    -151.809      70.810
  C      126.638    -150.350      69.207
  O      126.141    -149.038      68.974
  C      128.086    -150.576      68.793
  O      128.877    -149.424      69.108
  C      128.493    -151.762      69.690
  N      128.530    -153.032      68.976
  C      129.803    -153.500      68.627
  O      130.831    -152.878      68.874
  N      129.834    -154.689      67.959
  C      128.749    -155.437      67.591
  O      128.846    -156.512      67.007
  C      127.441    -154.871      67.938
  C      127.388    -153.716      68.606
  O      125.141    -150.977      75.221
  O      125.765    -148.852      73.843
  H      124.424    -151.623      75.321
  H      128.810    -149.295      70.081
  H      130.744    -155.051      67.708
  H      126.559    -155.420      67.641
  H      126.433    -153.278      68.867
  H      129.490    -151.584      70.117
  H      128.187    -150.754      67.719
  H      125.984    -151.085      68.713
  H      127.189    -149.817      71.231
  H      124.725    -150.044      71.241
  H      124.849    -151.767      70.876
  P      125.203    -148.840      67.685
  C      123.244    -150.279      68.655
  O      124.215    -150.099      67.646
  O      126.237    -149.128      66.499
  O      124.542    -147.500      67.620
  H      126.802    -149.897      66.661
  H      122.475    -150.951      68.283
  H      122.783    -149.328      68.935
  H      123.714    -150.728      69.536
  H      121.647    -150.963      73.756
  H      122.820    -151.501      74.934
  H      122.976    -151.985      73.263

 3  4  5  6  7  8  9  10  11  12  13  24  28  29  30  31  32 0
 6-311+G(2d,p)
 ****
 33  34 0
 6-311+G(2d,p)
 ****
 1  2  14  15  16  17  18  19  20  21  22  23  25  26  27 0
 3-21G
 ****
 35  36  37  38  39  40  41  42  43  44  45 0
 3-21G
 ****


