%nproc=1
%NoSave
%Mem=1900MB
#P OB98/GEN NMR

erre ene a

0 1
  C      269.980    -178.079     203.239
  O      269.933    -177.178     204.332
  P      270.069    -177.704     205.836
  C      272.685    -177.508     205.700
  O      271.545    -178.269     206.041
  C      273.762    -177.718     206.769
  O      273.366    -177.092     208.009
  C      273.995    -179.206     207.047
  O      275.077    -179.697     206.272
  C      274.262    -179.225     208.540
  O      275.632    -178.872     208.813
  C      273.313    -178.110     209.042
  N      271.897    -178.457     209.270
  C      271.550    -179.280     210.339
  O      272.361    -179.725     211.144
  N      270.221    -179.600     210.437
  C      269.227    -179.146     209.617
  O      268.099    -179.623     209.563
  C      269.614    -178.079     208.690
  C      270.911    -177.805     208.542
  O      269.162    -179.022     205.840
  O      269.654    -176.735     206.894
  H      276.191    -179.483     208.302
  H      268.283    -178.834     206.214
  H      269.984    -180.306     211.126
  H      268.834    -177.591     208.116
  H      271.223    -177.044     207.832
  H      273.688    -177.662     209.970
  H      274.120    -180.221     208.952
  H      273.079    -179.775     206.846
  H      274.693    -177.246     206.435
  H      272.420    -176.448     205.628
  H      273.061    -177.814     204.718
  P      275.268    -181.272     206.090
  C      273.567    -180.834     204.226
  O      274.025    -181.751     205.197
  O      275.486    -182.041     207.352
  O      276.525    -181.379     205.104
  H      277.342    -181.543     205.624
  H      272.848    -181.341     203.575
  H      274.398    -180.467     203.620
  H      273.067    -179.996     204.719
  H      269.872    -177.535     202.324
  H      269.185    -178.789     203.328
  H      270.919    -178.592     203.240

 3  4  5  6  7  8  9  10  11  12  13  23  28  29  30  31  32 0
 6-311+G(2d,p)
 ****
 33  34 0
 6-311+G(2d,p)
 ****
 1  2  14  15  16  17  18  19  20  21  22  24  25  26  27 0
 3-21G
 ****
 35  36  37  38  39  40  41  42  43  44  45 0
 3-21G
 ****


