%nproc=1
%NoSave
%Mem=1900MB
#P OB98/GEN NMR

erre ene a

0 1
  C       -0.944     -27.913      90.908
  O       -0.463     -28.068      89.567
  P       -1.382     -28.667      88.395
  C       -1.408     -28.508      85.824
  O       -0.603     -28.515      87.000
  C       -0.561     -28.331      84.559
  O        0.029     -27.017      84.520
  C        0.594     -29.318      84.428
  O        0.129     -30.576      83.977
  C        1.506     -28.580      83.452
  O        1.050     -28.768      82.101
  C        1.318     -27.121      83.883
  N        6.249     -25.811      84.218
  C        5.489     -26.203      83.174
  N        4.181     -26.540      83.164
  C        3.653     -26.416      84.394
  C        4.306     -26.031      85.555
  C        5.672     -25.719      85.438
  N        6.448     -25.335      86.506
  N        3.442     -26.046      86.630
  C        2.282     -26.416      86.123
  N        2.358     -26.650      84.777
  O       -2.778     -28.136      88.377
  O       -1.382     -30.249      88.648
  H        1.621     -28.231      81.523
  H       -2.209     -30.636      88.304
  H        5.998     -26.255      82.214
  H        1.365     -26.524      86.686
  H        1.296     -26.444      83.021
  H        2.542     -28.926      83.498
  H        1.105     -29.426      85.391
  H       -1.232     -28.412      83.694
  H       -2.127     -27.684      85.902
  H        7.428     -25.161      86.346
  H        6.036     -25.310      87.427
  H       -1.959     -29.454      85.774
  P        0.392     -31.891      84.852
  C       -1.064     -33.663      86.002
  O       -1.021     -32.624      85.041
  O        1.174     -31.686      86.106
  O        1.160     -32.869      83.843
  H        1.754     -33.454      84.350
  H       -0.649     -34.576      85.568
  H       -2.106     -33.842      86.278
  H       -0.500     -33.392      86.899
  H       -0.170     -27.499      91.519
  H       -1.232     -28.868      91.296
  H       -1.789     -27.257      90.910

 3  4  5  6  7  8  9  10  11  12  22  25  29  30  31  32 0
 6-311+G(2d,p)
 ****
 33  36  37 0
 6-311+G(2d,p)
 ****
 1  2  13  14  15  16  17  18  19  20  21  23  24  26 0
 3-21G
 ****
 27  28  34  35  38  39  40  41  42  43  44  45  46  47  48 0
 3-21G
 ****


