%nproc=1
%NoSave
%Mem=1900MB
#P OB98/GEN NMR

erre ene a

0 1
  C     -110.070     202.072     -86.165
  O     -110.675     202.895     -85.191
  H     -109.219     202.604     -86.596
  H     -110.783     201.856     -86.963
  H     -109.710     201.137     -85.724
  P     -111.770     202.262     -84.207
  C     -110.544     202.835     -82.010
  O     -111.668     203.093     -82.839
  C     -110.723     203.521     -80.652
  O     -110.202     204.881     -80.756
  C     -112.193     203.615     -80.200
  O     -112.243     203.501     -78.773
  C     -112.548     205.027     -80.622
  O     -113.675     205.512     -79.938
  C     -111.248     205.761     -80.309
  N     -111.198     207.065     -80.964
  C     -111.757     208.137     -80.277
  O     -112.289     208.035     -79.172
  N     -111.758     209.337     -80.933
  C     -111.365     209.540     -82.223
  O     -111.461     210.621     -82.788
  C     -110.830     208.360     -82.920
  C     -110.768     207.196     -82.270
  O     -111.720     200.780     -84.041
  O     -113.170     202.762     -84.799
  H     -114.489     205.164     -80.348
  H     -113.896     202.186     -84.491
  H     -112.150     210.126     -80.443
  H     -110.524     208.482     -83.951
  H     -110.397     206.301     -82.758
  H     -111.128     205.899     -79.226
  H     -112.767     205.056     -81.695
  H     -112.833     202.856     -80.656
  H     -110.112     203.001     -79.905
  H     -109.652     203.230     -82.511
  H     -110.428     201.755     -81.874
  P     -112.709     202.150     -78.048
  C     -110.850     201.998     -76.281
  O     -112.248     202.149     -76.504
  O     -112.348     200.900     -78.787
  O     -114.303     202.283     -77.954
  H     -114.711     201.440     -78.230
  H     -110.653     202.011     -75.229
  H     -110.325     202.803     -76.752
  H     -110.521     201.067     -76.694

 6  7  8  9  10  11  12  13  14  15  16  26  31  32  33  34  35 0
 6-311+G(2d,p)
 ****
 36  37 0
 6-311+G(2d,p)
 ****
 1  2  3  4  5  17  18  19  20  21  22  23  24  25 0
 3-21G
 ****
 27  28  29  30  38  39  40  41  42  43  44  45 0
 3-21G
 ****


