%nproc=1
%NoSave
%Mem=1900MB
#P OB98/GEN NMR

erre ene a

0 1
  C      372.763     -19.618    -115.649
  O      372.267     -19.259    -116.925
  H      372.551     -20.675    -115.478
  H      372.265     -19.028    -114.876
  H      373.845     -19.461    -115.605
  P      372.639     -17.787    -117.454
  C      370.715     -16.528    -116.185
  O      372.102     -16.779    -116.326
  C      370.479     -15.325    -115.273
  O      370.995     -14.137    -115.925
  C      369.005     -15.075    -114.949
  O      368.907     -14.619    -113.596
  C      368.612     -13.958    -115.901
  O      367.488     -13.218    -115.421
  C      369.929     -13.168    -116.004
  N      370.009     -12.387    -117.237
  C      369.036     -11.399    -117.421
  O      368.151     -11.235    -116.578
  N      369.057     -10.651    -118.572
  C      369.932     -10.912    -119.491
  N      369.891     -10.150    -120.616
  C      370.944     -11.982    -119.364
  C      370.932     -12.663    -118.221
  O      371.599     -17.603    -118.658
  O      374.073     -17.618    -117.839
  H      367.771     -12.723    -114.622
  H      370.711     -17.935    -118.456
  H      371.644     -12.170    -120.167
  H      371.645     -13.460    -118.040
  H      370.037     -12.486    -115.155
  H      368.346     -14.377    -116.876
  H      368.377     -15.954    -115.086
  H      371.069     -15.461    -114.359
  H      369.170      -9.441    -120.672
  H      370.210     -17.405    -115.769
  H      370.488     -10.299    -121.417
  H      370.302     -16.336    -117.180
  P      368.311     -15.606    -112.482
  C      365.750     -15.573    -112.796
  O      366.960     -16.274    -113.042
  O      368.209     -15.042    -111.103
  O      369.339     -16.840    -112.513
  H      369.469     -17.147    -111.592
  H      364.930     -16.118    -113.216
  H      365.802     -14.604    -113.246
  H      365.606     -15.469    -111.741

 6  7  8  9  10  11  12  13  14  15  16  26  30  31  32  33  35 0
 6-311+G(2d,p)
 ****
 37  38 0
 6-311+G(2d,p)
 ****
 1  2  3  4  5  17  18  19  20  21  22  23  24  25 0
 3-21G
 ****
 27  28  29  34  36  39  40  41  42  43  44  45  46 0
 3-21G
 ****


