%nproc=1
%NoSave
%Mem=1900MB
#P OB98/GEN NMR

erre ene a

0 1
  C     -823.840     903.285     121.560
  O     -824.303     904.591     121.800
  P     -825.555     905.221     121.068
  C     -827.257     904.191     122.780
  O     -826.862     904.350     121.412
  C     -828.425     905.124     123.140
  O     -829.563     904.780     122.316
  C     -828.855     904.945     124.627
  O     -829.134     906.180     125.266
  C     -829.977     903.927     124.519
  O     -830.841     903.927     125.658
  C     -830.615     904.286     123.175
  N     -834.876     901.520     122.908
  C     -834.674     902.712     123.565
  N     -835.621     903.113     124.440
  N     -833.572     903.408     123.444
  C     -832.613     902.828     122.676
  C     -832.750     901.655     121.951
  C     -833.951     900.898     122.071
  O     -834.161     899.800     121.584
  N     -831.564     901.344     121.315
  C     -830.726     902.305     121.665
  N     -831.305     903.205     122.509
  O     -825.371     905.640     119.649
  O     -825.819     906.553     121.951
  H     -830.256     903.952     126.432
  H     -826.137     907.239     121.345
  H     -835.726     900.983     123.116
  H     -829.697     902.385     121.359
  H     -831.359     905.101     123.293
  H     -829.513     902.937     124.461
  H     -836.393     902.511     124.651
  H     -828.026     904.531     125.194
  H     -835.396     903.821     125.111
  H     -828.130     906.162     122.900
  H     -826.380     904.426     123.380
  H     -827.515     903.162     122.975
  P     -828.873     906.581     126.786
  C     -826.331     906.925     126.496
  O     -827.342     906.187     127.162
  O     -829.717     905.546     127.654
  O     -829.253     907.983     127.160
  H     -830.117     905.989     128.430
  H     -825.369     906.388     126.602
  H     -826.242     907.909     126.905
  H     -826.568     906.999     125.425
  H     -822.985     903.092     122.173
  H     -823.570     903.186     120.529
  H     -824.613     902.584     121.795

 3  4  5  6  7  8  9  10  11  12  23  26  30  31 0
 6-311+G(2d,p)
 ****
 33  35  36  37  38 0
 6-311+G(2d,p)
 ****
 1  2  13  14  15  16  17  18  19  20  21  22  24  25 0
 3-21G
 ****
 27  28  29  32  34  39  40  41  42  43  44  45  46  47  48  49 0
 3-21G
 ****


