%nproc=1
%NoSave
%Mem=1900MB
#P OB98/GEN NMR

erre ene a

0 1
  C      -11.883     273.948      10.794
  O      -10.824     273.931      11.730
  H      -11.717     273.154      10.062
  H      -11.912     274.908      10.272
  H      -12.834     273.770      11.299
  P      -10.844     275.064      12.866
  C      -10.012     276.669      11.001
  O      -10.883     276.477      12.105
  C       -8.953     277.707      11.358
  O       -8.008     277.840      10.271
  C       -9.507     279.105      11.588
  O      -10.102     279.245      12.865
  C       -8.250     279.944      11.426
  O       -7.491     279.994      12.645
  C       -7.480     279.181      10.326
  N       -7.560     279.853       9.033
  C       -6.341     280.142       8.427
  O       -5.253     279.860       8.930
  N       -6.409     280.806       7.233
  C       -7.551     281.232       6.618
  O       -7.539     281.888       5.582
  C       -8.811     280.886       7.298
  C       -8.758     280.231       8.460
  O       -9.363     274.996      13.470
  O      -11.890     274.889      13.915
  H       -9.374     274.525      14.324
  H       -6.635     280.406      12.416
  H       -5.536     281.034       6.783
  H       -9.736     281.203       6.833
  H       -9.674     279.983       8.990
  H       -6.420     279.091      10.594
  H       -8.485     280.974      11.158
  H      -10.212     279.370      10.790
  H       -8.409     277.356      12.246
  H      -10.586     277.027      10.139
  H       -9.549     275.712      10.741
  P      -11.186     280.407      13.083
  C       -9.645     281.536      14.888
  O      -10.395     281.662      13.694
  O      -12.015     279.828      14.321
  O      -11.995     280.709      11.868
  H      -11.462     279.340      14.955
  H       -9.196     282.477      15.128
  H       -8.880     280.800      14.753
  H      -10.292     281.236      15.686

 6  7  8  9  10  11  12  13  14  15  16  27  31  32  33  34  35 0
 6-311+G(2d,p)
 ****
 36  37 0
 6-311+G(2d,p)
 ****
 1  2  3  4  5  17  18  19  20  21  22  23  24  25 0
 3-21G
 ****
 26  28  29  30  38  39  40  41  42  43  44  45 0
 3-21G
 ****


