%nproc=1
%NoSave
%Mem=1900MB
#P OB98/GEN NMR

erre ene a

0 1
  C      110.908     588.362     348.815
  O      111.514     587.088     348.830
  P      111.890     586.407     350.229
  C      113.817     586.539     351.929
  O      113.220     587.120     350.779
  C      115.282     586.177     351.660
  O      115.984     587.321     351.110
  C      116.063     585.782     352.911
  O      115.745     584.465     353.311
  C      117.490     585.967     352.434
  O      117.928     584.828     351.672
  C      117.363     587.203     351.499
  N      121.417     589.786     353.255
  C      121.278     588.502     352.802
  N      120.153     587.888     352.403
  C      119.076     588.701     352.509
  C      119.071     590.014     352.972
  C      120.304     590.562     353.334
  N      120.471     591.879     353.726
  N      117.781     590.516     352.946
  C      117.026     589.511     352.488
  N      117.794     588.431     352.145
  O      111.920     584.899     350.234
  O      110.764     586.950     351.229
  H      118.064     584.090     352.306
  H      110.258     586.193     351.600
  H      122.185     587.912     352.773
  H      115.955     589.545     352.373
  H      117.949     587.077     350.580
  H      118.204     586.100     353.252
  H      115.861     586.495     353.715
  H      115.301     585.366     350.924
  H      113.265     585.630     352.202
  H      121.429     592.198     353.823
  H      119.735     592.545     353.504
  H      113.742     587.257     352.765
  P      116.378     583.860     354.653
  C      118.759     583.443     355.540
  O      117.966     583.748     354.400
  O      115.714     582.634     355.195
  O      116.272     585.084     355.705
  H      116.131     584.721     356.600
  H      118.877     584.344     356.151
  H      119.737     583.092     355.212
  H      118.283     582.652     356.145
  H      110.729     588.660     347.803
  H      111.557     589.071     349.286
  H      109.979     588.321     349.345

 3  4  5  6  7  8  9  10  11  12  22  25  29  30  31  32 0
 6-311+G(2d,p)
 ****
 33  36  37 0
 6-311+G(2d,p)
 ****
 1  2  13  14  15  16  17  18  19  20  21  23  24  26 0
 3-21G
 ****
 27  28  34  35  38  39  40  41  42  43  44  45  46  47  48 0
 3-21G
 ****


