%nproc=1
%NoSave
%Mem=1900MB
#P OB98/GEN NMR

erre ene a

0 1
  C     -479.253    -202.280     -11.466
  O     -478.505    -203.463     -11.669
  H     -478.608    -201.405     -11.577
  H     -480.045    -202.232     -12.217
  H     -479.708    -202.286     -10.471
  P     -477.301    -203.736     -10.644
  C     -477.029    -206.302     -10.369
  O     -476.650    -205.136     -11.082
  C     -476.376    -207.534     -10.986
  O     -476.897    -207.761     -12.314
  C     -474.863    -207.435     -11.157
  O     -474.177    -207.702      -9.939
  C     -474.619    -208.531     -12.183
  O     -474.624    -209.818     -11.535
  C     -475.849    -208.398     -13.094
  N     -473.946    -208.443     -17.848
  C     -474.124    -209.424     -16.933
  N     -474.657    -209.337     -15.697
  C     -475.051    -208.081     -15.436
  C     -474.963    -206.979     -16.275
  C     -474.375    -207.193     -17.536
  N     -474.144    -206.160     -18.434
  N     -475.462    -205.848     -15.650
  C     -475.820    -206.260     -14.454
  N     -475.602    -207.599     -14.279
  O     -478.071    -204.083      -9.277
  O     -476.347    -202.602     -10.468
  H     -474.613    -210.489     -12.242
  H     -478.116    -203.283      -8.723
  H     -473.783    -210.409     -17.235
  H     -476.244    -205.624     -13.683
  H     -476.235    -209.370     -13.420
  H     -473.659    -208.432     -12.700
  H     -474.565    -206.469     -11.584
  H     -476.642    -208.408     -10.374
  H     -478.118    -206.417     -10.406
  H     -473.345    -206.327     -19.038
  H     -474.233    -205.230     -18.041
  H     -476.718    -206.192      -9.324
  P     -473.330    -206.511      -9.284
  C     -473.858    -207.180      -6.836
  O     -472.853    -207.029      -7.839
  O     -474.451    -205.419      -8.947
  O     -472.261    -205.932     -10.151
  H     -474.229    -204.565      -9.374
  H     -473.408    -207.528      -5.930
  H     -474.588    -207.888      -7.167
  H     -474.331    -206.236      -6.660

 6  7  8  9  10  11  12  13  14  15  25  28  32  33  34  35 0
 6-311+G(2d,p)
 ****
 36  39  40 0
 6-311+G(2d,p)
 ****
 1  2  3  4  5  16  17  18  19  20  21  22  23  24 0
 3-21G
 ****
 26  27  29  30  31  37  38  41  42  43  44  45  46  47  48 0
 3-21G
 ****


