%nproc=1
%NoSave
%Mem=1900MB
#P OB98/GEN NMR

erre ene a

0 1
  C      -75.238      78.006     -26.355
  O      -75.722      78.218     -27.666
  H      -74.658      78.879     -26.051
  H      -74.588      77.128     -26.338
  H      -76.068      77.870     -25.658
  P      -76.681      77.085     -28.276
  C      -78.813      78.519     -27.923
  O      -77.974      77.849     -28.852
  C      -80.086      79.014     -28.605
  O      -80.977      79.571     -27.593
  C      -79.854      80.106     -29.661
  O      -80.809      79.917     -30.712
  C      -80.216      81.380     -28.916
  O      -80.550      82.452     -29.795
  C      -81.377      80.873     -28.063
  N      -84.919      83.899     -26.164
  C      -84.940      83.081     -27.277
  N      -86.081      83.064     -27.998
  N      -83.930      82.342     -27.651
  C      -82.865      82.431     -26.818
  C      -82.716      83.204     -25.692
  C      -83.833      84.038     -25.304
  O      -83.867      84.798     -24.341
  N      -81.471      83.035     -25.139
  C      -80.872      82.162     -25.928
  N      -81.677      81.767     -26.961
  O      -77.231      76.349     -26.966
  O      -76.028      76.134     -29.221
  H      -80.912      83.184     -29.253
  H      -76.674      75.576     -26.755
  H      -85.720      84.457     -25.928
  H      -79.865      81.790     -25.800
  H      -82.302      80.761     -28.641
  H      -79.377      81.702     -28.287
  H      -86.915      83.570     -27.744
  H      -78.842      80.123     -30.078
  H      -86.132      82.437     -28.793
  H      -80.606      78.154     -29.042
  H      -78.271      79.375     -27.508
  H      -79.069      77.832     -27.109
  P      -80.303      79.256     -32.080
  C      -81.407      76.902     -32.118
  O      -81.432      78.240     -32.590
  O      -79.138      78.271     -31.590
  O      -79.806      80.237     -33.089
  H      -78.484      78.151     -32.302
  H      -82.221      76.357     -32.549
  H      -81.500      76.898     -31.052
  H      -80.482      76.442     -32.397

 6  7  8  9  10  11  12  13  14  15  26  29  33  34 0
 6-311+G(2d,p)
 ****
 36  38  39  40  41 0
 6-311+G(2d,p)
 ****
 1  2  3  4  5  16  17  18  19  20  21  22  23  24  25 0
 3-21G
 ****
 27  28  30  31  32  35  37  42  43  44  45  46  47 0
 3-21G
 ****
 48  49 0
 3-21G
 ****


