%nproc=1
%NoSave
%Mem=1900MB
#P OB98/GEN NMR

erre ene a

0 1
  C       47.077     384.643    -772.751
  O       47.931     383.638    -773.271
  H       46.055     384.496    -773.114
  H       47.074     384.567    -771.654
  H       47.440     385.636    -773.035
  P       48.096     383.599    -774.864
  C       47.096     381.206    -775.039
  O       48.224     382.046    -775.267
  C       47.398     379.788    -775.519
  O       47.810     379.812    -776.900
  C       48.522     379.085    -774.768
  O       48.083     378.557    -773.526
  C       48.875     377.982    -775.752
  O       47.917     376.911    -775.636
  C       48.720     378.688    -777.102
  N       52.925     377.499    -779.780
  C       51.806     376.792    -779.472
  N       50.724     377.182    -778.776
  C       50.852     378.464    -778.390
  C       51.910     379.322    -778.636
  C       52.992     378.788    -779.359
  N       54.149     379.508    -779.609
  N       51.681     380.557    -778.067
  C       50.516     380.436    -777.464
  N       49.970     379.196    -777.637
  O       49.580     384.173    -775.085
  O       47.083     384.382    -775.628
  H       47.033     377.313    -775.743
  H       49.530     385.122    -775.296
  H       51.795     375.764    -779.843
  H       50.030     381.220    -776.893
  H       48.268     378.041    -777.866
  H       49.869     377.549    -775.576
  H       49.401     379.736    -774.637
  H       46.467     379.206    -775.462
  H       46.232     381.600    -775.590
  H       54.979     378.927    -779.703
  H       54.251     380.351    -779.055
  H       46.868     381.202    -773.965
  P       48.335     379.426    -772.202
  C       49.938     377.709    -771.120
  O       48.695     378.394    -771.032
  O       46.879     379.946    -771.834
  O       49.294     380.580    -772.373
  H       46.868     380.925    -771.771
  H       50.046     377.057    -770.278
  H       50.738     378.420    -771.126
  H       49.965     377.134    -772.022

 6  7  8  9  10  11  12  13  14  15  25  28  32  33  34  35 0
 6-311+G(2d,p)
 ****
 36  39  40 0
 6-311+G(2d,p)
 ****
 1  2  3  4  5  16  17  18  19  20  21  22  23  24 0
 3-21G
 ****
 26  27  29  30  31  37  38  41  42  43  44  45  46  47  48 0
 3-21G
 ****


