%nproc=1
%NoSave
%Mem=1900MB
#P OB98/GEN NMR

erre ene a

0 1
  C      229.959     108.013    -118.917
  O      228.561     107.807    -118.943
  H      230.310     108.191    -119.938
  H      230.467     107.128    -118.520
  H      230.198     108.888    -118.303
  P      227.857     107.424    -117.552
  C      228.235     105.561    -115.776
  O      228.432     105.991    -117.120
  C      227.747     104.114    -115.769
  O      226.441     104.038    -116.396
  C      228.629     103.155    -116.554
  O      229.789     102.763    -115.834
  C      227.670     101.997    -116.777
  O      227.645     101.106    -115.655
  C      226.316     102.711    -116.954
  N      225.900     102.743    -118.355
  C      225.187     101.627    -118.794
  O      224.912     100.671    -118.072
  N      224.830     101.630    -120.117
  C      225.157     102.593    -121.035
  O      224.852     102.505    -122.217
  C      225.922     103.737    -120.515
  C      226.259     103.758    -119.218
  O      226.346     107.115    -117.984
  O      227.932     108.475    -116.497
  H      225.764     107.845    -117.700
  H      228.504     100.635    -115.663
  H      224.311     100.837    -120.455
  H      226.199     104.518    -121.214
  H      226.838     104.586    -118.816
  H      225.538     102.203    -116.376
  H      227.964     101.413    -117.646
  H      228.896     103.592    -117.528
  H      227.649     103.784    -114.727
  H      227.485     106.194    -115.294
  H      229.182     105.657    -115.230
  P      231.192     102.773    -116.618
  C      232.070     101.427    -118.701
  O      231.125     101.548    -117.648
  O      232.177     102.279    -115.456
  O      231.527     104.102    -117.209
  H      231.715     101.723    -114.805
  H      231.856     100.549    -119.273
  H      233.055     101.353    -118.290
  H      232.011     102.288    -119.334

 6  7  8  9  10  11  12  13  14  15  16  27  31  32  33  34  35 0
 6-311+G(2d,p)
 ****
 36  37 0
 6-311+G(2d,p)
 ****
 1  2  3  4  5  17  18  19  20  21  22  23  24  25 0
 3-21G
 ****
 26  28  29  30  38  39  40  41  42  43  44  45 0
 3-21G
 ****


