%nproc=1
%NoSave
%Mem=1900MB
#P OB98/GEN NMR

erre ene a

0 1
  C      -87.134      42.034     260.036
  O      -87.727      42.128     258.752
  H      -87.929      41.960     260.784
  H      -86.538      42.923     260.256
  H      -86.508      41.142     260.097
  P      -86.771      42.406     257.497
  C      -87.653      44.776     256.942
  O      -86.574      43.993     257.448
  C      -87.448      46.246     257.298
  O      -87.678      46.457     258.703
  C      -86.029      46.735     257.031
  O      -85.818      46.948     255.649
  C      -85.989      47.980     257.900
  O      -86.629      49.087     257.254
  C      -86.790      47.517     259.139
  N      -85.937      47.070     260.232
  C      -85.264      48.077     260.937
  O      -85.417      49.259     260.634
  N      -84.425      47.707     261.961
  C      -84.278      46.455     262.262
  N      -83.431      46.157     263.283
  C      -84.977      45.365     261.550
  C      -85.777      45.741     260.556
  O      -87.179      41.794     256.189
  O      -85.340      41.875     257.986
  H      -86.772      49.755     257.951
  H      -85.231      40.932     257.766
  H      -84.827      44.332     261.841
  H      -86.329      45.002     259.980
  H      -87.427      48.329     259.508
  H      -84.965      48.276     258.125
  H      -85.300      46.018     257.430
  H      -88.180      46.844     256.742
  H      -82.966      46.937     263.732
  H      -88.571      44.399     257.404
  H      -83.305      45.230     263.660
  H      -87.739      44.660     255.854
  P      -84.332      47.057     255.058
  C      -84.651      49.616     254.879
  O      -83.849      48.553     255.397
  O      -84.176      46.643     253.632
  O      -83.468      46.164     256.076
  H      -83.626      45.202     255.933
  H      -84.229      50.555     255.170
  H      -85.645      49.535     255.268
  H      -84.680      49.554     253.811

 6  7  8  9  10  11  12  13  14  15  16  26  30  31  32  33  35 0
 6-311+G(2d,p)
 ****
 37  38 0
 6-311+G(2d,p)
 ****
 1  2  3  4  5  17  18  19  20  21  22  23  24  25 0
 3-21G
 ****
 27  28  29  34  36  39  40  41  42  43  44  45  46 0
 3-21G
 ****


