%nproc=1
%NoSave
%Mem=1900MB
#P OB98/GEN NMR

erre ene a

0 1
  C     -372.697    -397.077     331.381
  O     -371.485    -396.722     332.026
  P     -370.133    -397.441     331.527
  C     -368.622    -395.392     332.021
  O     -368.927    -396.754     332.321
  C     -367.729    -394.802     333.116
  O     -368.496    -394.523     334.313
  C     -366.598    -395.725     333.575
  O     -365.480    -395.681     332.680
  C     -366.239    -395.107     334.918
  O     -365.402    -393.957     334.715
  C     -367.616    -394.680     335.454
  N     -367.580    -396.366     340.232
  C     -367.027    -395.219     339.698
  N     -366.301    -394.437     340.538
  N     -367.149    -394.860     338.441
  C     -367.894    -395.738     337.709
  C     -368.501    -396.906     338.139
  C     -368.324    -397.287     339.518
  O     -368.756    -398.310     340.047
  N     -369.174    -397.523     337.118
  C     -368.970    -396.731     336.076
  N     -368.165    -395.668     336.388
  O     -369.955    -396.906     330.026
  O     -370.167    -398.944     331.587
  H     -364.537    -394.290     334.385
  H     -369.327    -397.486     329.539
  H     -367.435    -396.590     341.203
  H     -369.382    -396.904     335.078
  H     -367.570    -393.718     335.964
  H     -365.692    -395.799     335.554
  H     -366.105    -394.681     341.499
  H     -366.949    -396.750     333.726
  H     -365.828    -393.625     340.154
  H     -367.321    -393.839     332.745
  H     -369.547    -394.811     331.954
  H     -368.111    -395.342     331.050
  P     -364.228    -396.626     333.053
  C     -363.313    -396.351     330.638
  O     -363.071    -396.203     332.006
  O     -364.699    -398.059     332.548
  O     -363.857    -396.619     334.499
  H     -364.244    -398.777     333.045
  H     -362.551    -395.786     330.076
  H     -364.308    -395.976     330.354
  H     -363.238    -397.404     330.346
  H     -373.506    -396.525     331.813
  H     -372.874    -398.125     331.506
  H     -372.626    -396.849     330.338

 3  4  5  6  7  8  9  10  11  12  23  26  30  31 0
 6-311+G(2d,p)
 ****
 33  35  36  37  38 0
 6-311+G(2d,p)
 ****
 1  2  13  14  15  16  17  18  19  20  21  22  24  25 0
 3-21G
 ****
 27  28  29  32  34  39  40  41  42  43  44  45  46  47  48  49 0
 3-21G
 ****


