%nproc=1
%NoSave
%Mem=1900MB
#P OB98/GEN NMR

erre ene a

0 1
  C      108.940     105.752      84.289
  O      109.072     104.857      83.198
  P      110.457     104.055      83.070
  C      110.739     105.114      80.706
  O      111.334     104.816      81.966
  C      111.070     106.548      80.292
  O      110.755     107.457      81.369
  C      112.539     106.791      79.973
  O      112.880     106.267      78.700
  C      112.598     108.312      80.073
  O      112.068     108.905      78.876
  C      111.660     108.591      81.260
  N      115.173     111.356      83.760
  C      114.706     111.423      82.492
  N      113.786     110.635      81.894
  C      113.332     109.705      82.746
  C      113.729     109.500      84.057
  C      114.696     110.379      84.571
  N      115.173     110.304      85.862
  N      113.060     108.429      84.614
  C      112.260     108.002      83.655
  N      112.377     108.751      82.514
  O      110.026     102.702      82.334
  O      111.156     103.791      84.368
  H      112.558     108.523      78.121
  H      110.570     101.951      82.642
  H      115.125     112.215      81.878
  H      111.579     107.167      83.743
  H      111.050     109.488      81.111
  H      113.615     108.697      80.209
  H      113.181     106.342      80.742
  H      110.442     106.806      79.430
  H      109.652     105.011      80.782
  H      115.972     110.876      86.099
  H      114.923     109.495      86.413
  H      111.105     104.399      79.965
  P      113.940     105.059      78.660
  C      115.429     106.811      77.506
  O      115.356     105.803      78.503
  O      113.693     104.462      77.198
  O      113.834     104.093      79.787
  H      113.681     105.157      76.516
  H      116.423     107.265      77.543
  H      114.677     107.582      77.693
  H      115.277     106.370      76.517
  H      107.977     106.216      84.255
  H      109.700     106.503      84.229
  H      109.044     105.213      85.207

 3  4  5  6  7  8  9  10  11  12  22  25  29  30  31  32 0
 6-311+G(2d,p)
 ****
 33  36  37 0
 6-311+G(2d,p)
 ****
 1  2  13  14  15  16  17  18  19  20  21  23  24  26 0
 3-21G
 ****
 27  28  34  35  38  39  40  41  42  43  44  45  46  47  48 0
 3-21G
 ****


