%nproc=1
%NoSave
%Mem=1900MB
#P OB98/GEN NMR

erre ene a

0 1
  C      -31.090     -67.662     241.349
  O      -30.084     -68.541     241.817
  H      -31.351     -67.945     240.327
  H      -30.721     -66.633     241.347
  H      -31.981     -67.742     241.979
  P      -29.573     -68.307     243.323
  C      -30.678     -68.824     245.609
  O      -30.877     -68.556     244.224
  C      -31.888     -68.361     246.421
  O      -31.990     -66.927     246.397
  C      -33.227     -68.879     245.911
  O      -33.455     -70.209     246.360
  C      -34.181     -67.893     246.562
  O      -34.394     -68.259     247.940
  C      -33.398     -66.569     246.490
  N      -36.912     -63.402     244.488
  C      -36.951     -64.233     245.557
  N      -35.997     -65.075     246.003
  C      -34.905     -65.012     245.224
  C      -34.715     -64.209     244.106
  C      -35.781     -63.368     243.746
  N      -35.728     -62.515     242.663
  N      -33.463     -64.414     243.562
  C      -32.888     -65.284     244.370
  N      -33.732     -65.701     245.370
  O      -28.832     -67.037     243.564
  O      -28.727     -69.645     243.570
  H      -35.124     -67.706     248.282
  H      -29.169     -70.409     243.161
  H      -37.877     -64.218     246.127
  H      -31.862     -65.626     244.285
  H      -33.525     -65.971     247.397
  H      -35.160     -67.882     246.081
  H      -33.303     -68.789     244.822
  H      -31.723     -68.658     247.466
  H      -29.775     -68.326     245.969
  H      -36.591     -62.077     242.374
  H      -34.936     -62.582     242.039
  H      -30.544     -69.906     245.717
  P      -34.249     -71.255     245.435
  C      -33.784     -72.331     243.146
  O      -33.554     -71.207     243.990
  O      -35.731     -71.087     245.418
  O      -33.824     -72.689     245.997
  H      -34.583     -73.301     245.983
  H      -33.275     -72.189     242.216
  H      -34.834     -72.433     242.966
  H      -33.416     -73.216     243.622

 6  7  8  9  10  11  12  13  14  15  25  28  32  33  34  35 0
 6-311+G(2d,p)
 ****
 36  39  40 0
 6-311+G(2d,p)
 ****
 1  2  3  4  5  16  17  18  19  20  21  22  23  24 0
 3-21G
 ****
 26  27  29  30  31  37  38  41  42  43  44  45  46  47 0
 3-21G
 ****
 48 0
 3-21G
 ****


