%nproc=1
%NoSave
%Mem=1900MB
#P OB98/GEN NMR

erre ene a

0 1
  C     -328.524     461.476    -140.556
  O     -328.943     462.527    -139.714
  H     -328.060     461.904    -141.449
  H     -329.385     460.876    -140.863
  H     -327.790     460.844    -140.047
  P     -329.511     462.131    -138.264
  C     -331.829     461.313    -139.107
  O     -330.593     460.967    -138.499
  C     -332.823     460.156    -138.997
  O     -332.317     459.032    -139.759
  C     -333.055     459.682    -137.555
  O     -334.436     459.340    -137.405
  C     -332.210     458.423    -137.450
  O     -332.685     457.522    -136.450
  C     -332.280     457.883    -138.887
  N     -331.145     457.012    -139.185
  C     -331.438     455.785    -139.790
  O     -332.607     455.476    -140.035
  N     -330.410     454.914    -140.048
  C     -329.211     455.200    -139.653
  N     -328.245     454.279    -139.913
  C     -328.867     456.454    -138.954
  C     -329.869     457.307    -138.764
  O     -330.411     463.392    -137.865
  O     -328.479     461.820    -137.236
  H     -333.632     457.334    -136.628
  H     -330.411     463.534    -136.900
  H     -327.850     456.635    -138.624
  H     -329.713     458.250    -138.252
  H     -333.207     457.318    -139.042
  H     -331.176     458.695    -137.199
  H     -332.778     460.428    -136.805
  H     -333.766     460.463    -139.460
  H     -328.519     453.425    -140.384
  H     -331.655     461.533    -140.162
  H     -327.283     454.377    -139.616
  H     -332.233     462.210    -138.625
  P     -335.364     460.407    -136.643
  C     -335.422     459.238    -134.321
  O     -334.999     460.364    -135.082
  O     -336.818     459.748    -136.714
  O     -335.341     461.766    -137.263
  H     -337.382     460.244    -137.339
  H     -335.106     459.355    -133.305
  H     -334.989     458.349    -134.729
  H     -336.489     459.164    -134.356

 6  7  8  9  10  11  12  13  14  15  16  26  30  31  32  33  35 0
 6-311+G(2d,p)
 ****
 37  38 0
 6-311+G(2d,p)
 ****
 1  2  3  4  5  17  18  19  20  21  22  23  24  25 0
 3-21G
 ****
 27  28  29  34  36  39  40  41  42  43  44  45  46 0
 3-21G
 ****


