%nproc=1
%NoSave
%Mem=1900MB
#P OB98/GEN NMR

erre ene a

0 1
  C      450.905      72.124     121.629
  O      450.508      72.165     120.263
  P      449.720      73.470     119.759
  C      448.381      71.926     118.155
  O      449.165      73.105     118.299
  C      447.680      71.911     116.802
  O      446.748      73.008     116.705
  C      448.616      72.062     115.606
  O      449.232      70.832     115.244
  C      447.634      72.499     114.527
  O      446.915      71.353     114.024
  C      446.685      73.411     115.314
  N      446.867      77.438     112.164
  C      446.544      76.143     111.953
  N      446.534      75.127     112.836
  C      446.937      75.554     114.047
  C      447.328      76.835     114.406
  C      447.278      77.811     113.402
  N      447.578      79.137     113.625
  N      447.676      76.881     115.739
  C      447.486      75.658     116.186
  N      447.031      74.818     115.204
  O      450.906      74.508     119.457
  O      448.727      74.021     120.724
  H      446.187      71.702     113.467
  H      450.571      75.420     119.495
  H      446.250      75.890     110.934
  H      447.662      75.334     117.202
  H      445.640      73.304     114.995
  H      448.121      72.972     113.673
  H      449.352      72.855     115.774
  H      447.111      70.974     116.723
  H      447.621      71.907     118.949
  H      447.337      79.806     112.906
  H      447.683      79.445     114.588
  H      449.033      71.055     118.265
  P      450.834      70.822     115.207
  C      450.808      69.668     112.869
  O      451.217      69.610     114.223
  O      451.225      70.268     116.658
  O      451.453      72.139     114.905
  H      452.121      70.579     116.906
  H      451.399      68.956     112.287
  H      450.968      70.676     112.452
  H      449.745      69.402     112.790
  H      451.416      71.205     121.824
  H      450.039      72.191     122.254
  H      451.558      72.946     121.835

 3  4  5  6  7  8  9  10  11  12  22  25  29  30  31  32 0
 6-311+G(2d,p)
 ****
 33  36  37 0
 6-311+G(2d,p)
 ****
 1  2  13  14  15  16  17  18  19  20  21  23  24  26 0
 3-21G
 ****
 27  28  34  35  38  39  40  41  42  43  44  45  46  47  48 0
 3-21G
 ****


