%nproc=1
%NoSave
%Mem=1900MB
#P OB98/GEN NMR

erre ene a

0 1
  C       23.518     -40.416     -16.798
  O       23.246     -40.790     -15.462
  H       23.197     -41.222     -17.462
  H       24.590     -40.251     -16.937
  H       22.966     -39.507     -17.052
  P       23.737     -39.786     -14.312
  C       25.952     -38.545     -13.752
  O       25.287     -39.484     -14.588
  C       27.426     -38.920     -13.634
  O       27.555     -40.185     -12.941
  C       28.124     -39.119     -14.972
  O       28.486     -37.895     -15.590
  C       29.336     -39.931     -14.546
  O       30.400     -39.092     -14.079
  C       28.773     -40.803     -13.407
  N       28.559     -42.183     -13.837
  C       29.620     -43.055     -13.613
  O       30.678     -42.712     -13.087
  N       29.440     -44.339     -14.052
  C       28.349     -44.809     -14.724
  O       28.277     -45.960     -15.139
  C       27.267     -43.838     -14.947
  C       27.420     -42.586     -14.505
  O       23.754     -40.708     -13.005
  O       22.886     -38.573     -14.131
  H       23.002     -40.479     -12.429
  H       30.001     -38.490     -13.421
  H       30.196     -44.987     -13.896
  H       26.386     -44.177     -15.479
  H       26.640     -41.848     -14.668
  H       29.465     -40.814     -12.556
  H       29.726     -40.515     -15.377
  H       27.503     -39.730     -15.639
  H       27.937     -38.148     -13.043
  H       25.501     -38.557     -12.754
  H       25.834     -37.542     -14.178
  P       28.223     -37.747     -17.167
  C       29.588     -38.543     -19.271
  O       29.566     -38.251     -17.882
  O       28.250     -36.155     -17.320
  O       26.963     -38.406     -17.615
  H       28.799     -35.735     -16.635
  H       30.570     -38.862     -19.553
  H       29.325     -37.666     -19.824
  H       28.885     -39.322     -19.483

 6  7  8  9  10  11  12  13  14  15  16  27  31  32  33  34  35 0
 6-311+G(2d,p)
 ****
 36  37 0
 6-311+G(2d,p)
 ****
 1  2  3  4  5  17  18  19  20  21  22  23  24  25 0
 3-21G
 ****
 26  28  29  30  38  39  40  41  42  43  44  45 0
 3-21G
 ****


