%nproc=1
%NoSave
%Mem=1900MB
#P OB98/GEN NMR

erre ene a

0 1
  C     -100.334    -326.525    -603.741
  O     -100.108    -327.910    -603.450
  P      -98.754    -328.569    -604.001
  C      -96.647    -327.176    -604.642
  O      -97.523    -327.610    -603.608
  C      -95.572    -326.246    -604.071
  O      -96.165    -325.068    -603.483
  C      -94.770    -326.892    -602.948
  O      -93.798    -327.777    -603.485
  C      -94.173    -325.674    -602.246
  O      -92.896    -325.308    -602.806
  C      -95.228    -324.575    -602.505
  N      -95.903    -324.151    -601.289
  C      -95.768    -322.795    -600.953
  O      -95.097    -322.035    -601.665
  N      -96.392    -322.338    -599.817
  C      -97.050    -323.163    -599.064
  N      -97.632    -322.650    -597.944
  C      -97.186    -324.604    -599.364
  C      -96.594    -325.029    -600.477
  O      -98.876    -328.383    -605.585
  O      -98.586    -330.006    -603.626
  H      -92.681    -324.439    -602.408
  H      -98.444    -329.123    -606.050
  H      -97.742    -325.250    -598.704
  H      -96.638    -326.068    -600.776
  H      -94.751    -323.680    -602.945
  H      -94.004    -325.871    -601.186
  H      -95.436    -327.422    -602.256
  H      -94.904    -325.941    -604.885
  H      -97.518    -321.654    -597.774
  H      -97.216    -326.648    -605.421
  H      -98.169    -323.202    -597.289
  H      -96.195    -328.046    -605.130
  P      -93.871    -329.318    -603.042
  C      -95.825    -330.979    -602.885
  O      -95.330    -329.809    -603.512
  O      -94.057    -329.202    -601.450
  O      -92.722    -330.191    -603.411
  H      -94.023    -330.091    -601.044
  H      -96.884    -331.089    -603.137
  H      -95.722    -330.922    -601.802
  H      -95.290    -331.858    -603.265
  H     -101.267    -326.219    -603.317
  H     -100.361    -326.383    -604.801
  H      -99.543    -325.939    -603.322

 3  4  5  6  7  8  9  10  11  12  13  21  23  27  28  29  30  32 0
 6-311+G(2d,p)
 ****
 34  35 0
 6-311+G(2d,p)
 ****
 1  2  14  15  16  17  18  19  20  22  24  25  26 0
 3-21G
 ****
 31  33  36  37  38  39  40  41  42  43  44  45  46 0
 3-21G
 ****


