%nproc=1
%NoSave
%Mem=1900MB
#P OB98/GEN NMR

erre ene a

0 1
  C      208.056    -315.215    -273.593
  O      209.131    -314.299    -273.551
  P      209.695    -313.869    -272.112
  C      210.357    -311.533    -273.063
  O      209.679    -312.268    -272.053
  C      210.130    -310.035    -272.854
  O      208.748    -309.698    -273.105
  C      210.415    -309.567    -271.431
  O      211.804    -309.416    -271.205
  C      209.641    -308.259    -271.377
  O      210.407    -307.184    -271.941
  C      208.413    -308.577    -272.258
  N      207.212    -308.827    -271.473
  C      206.354    -307.741    -271.302
  O      206.593    -306.624    -271.761
  N      205.233    -307.974    -270.557
  C      204.916    -309.142    -269.928
  O      203.922    -309.274    -269.221
  C      205.873    -310.244    -270.113
  C      206.961    -310.041    -270.862
  O      211.251    -314.234    -272.187
  O      209.020    -314.537    -270.960
  H      211.211    -307.093    -271.390
  H      211.559    -314.546    -271.313
  H      204.586    -307.209    -270.444
  H      205.654    -311.190    -269.628
  H      207.684    -310.835    -270.997
  H      208.212    -307.735    -272.934
  H      209.390    -307.969    -270.352
  H      209.974    -310.272    -270.710
  H      210.752    -309.482    -273.572
  H      209.979    -311.831    -274.046
  H      211.425    -311.768    -273.023
  P      212.274    -309.195    -269.685
  C      214.091    -307.505    -270.508
  O      212.982    -307.756    -269.673
  O      213.477    -310.249    -269.593
  O      211.179    -309.405    -268.698
  H      213.942    -310.352    -270.438
  H      214.001    -308.027    -271.463
  H      215.007    -307.825    -270.005
  H      214.151    -306.429    -270.698
  H      207.790    -315.406    -274.612
  H      207.215    -314.802    -273.076
  H      208.349    -316.131    -273.123

 3  4  5  6  7  8  9  10  11  12  13  23  28  29  30  31  32 0
 6-311+G(2d,p)
 ****
 33  34 0
 6-311+G(2d,p)
 ****
 1  2  14  15  16  17  18  19  20  21  22  24  25  26 0
 3-21G
 ****
 27  35  36  37  38  39  40  41  42  43  44  45 0
 3-21G
 ****


