%nproc=1
%NoSave
%Mem=1900MB
#P OB98/GEN NMR

erre ene a

0 1
  C      335.621      26.854      24.941
  O      334.274      26.500      25.202
  P      333.770      25.058      24.713
  C      333.652      24.021      27.087
  O      332.940      24.419      25.922
  C      332.717      23.414      28.137
  O      332.008      24.491      28.809
  C      331.678      22.451      27.571
  O      331.497      21.390      28.520
  C      330.412      23.285      27.516
  O      329.241      22.466      27.549
  C      330.602      24.194      28.738
  N      329.808      25.418      28.647
  C      328.529      25.401      29.222
  O      328.101      24.347      29.713
  N      327.761      26.527      29.188
  C      328.185      27.572      28.535
  N      327.391      28.674      28.522
  C      329.470      27.601      27.796
  C      330.224      26.506      27.917
  O      335.121      24.193      24.689
  O      333.083      25.062      23.379
  H      328.458      23.051      27.641
  H      335.095      23.522      23.978
  H      329.751      28.479      27.233
  H      331.200      26.449      27.425
  H      330.318      23.675      29.658
  H      330.393      23.871      26.588
  H      331.969      22.026      26.601
  H      333.336      22.913      28.895
  H      326.509      28.628      29.025
  H      334.141      24.896      27.523
  H      327.637      29.530      28.042
  H      334.427      23.299      26.801
  P      331.360      19.893      27.960
  C      332.706      19.311      30.071
  O      331.631      18.950      29.223
  O      332.734      19.743      27.135
  O      330.186      19.565      27.096
  H      332.749      18.874      26.682
  H      332.694      18.670      30.948
  H      332.618      20.351      30.373
  H      333.670      19.166      29.536
  H      335.812      27.836      25.321
  H      335.795      26.840      23.885
  H      336.273      26.153      25.419

 3  4  5  6  7  8  9  10  11  12  13  21  23  27  28  29  30  32 0
 6-311+G(2d,p)
 ****
 34  35 0
 6-311+G(2d,p)
 ****
 1  2  14  15  16  17  18  19  20  22  24  25  26 0
 3-21G
 ****
 31  33  36  37  38  39  40  41  42  43  44  45  46 0
 3-21G
 ****


