%nproc=1
%NoSave
%Mem=1900MB
#P OB98/GEN NMR

erre ene a

0 1
  C     -330.672    -899.516    -895.310
  O     -330.601    -898.086    -895.490
  P     -331.116    -897.436    -896.880
  C     -332.003    -894.966    -896.550
  O     -332.260    -896.386    -896.550
  C     -332.506    -894.336    -895.270
  O     -331.886    -894.926    -894.100
  C     -332.267    -892.846    -895.130
  O     -333.146    -892.096    -895.950
  C     -332.439    -892.636    -893.650
  O     -333.847    -892.466    -893.310
  C     -331.870    -893.926    -893.050
  N     -330.536    -893.776    -892.470
  C     -330.485    -893.136    -891.240
  O     -331.488    -892.676    -890.650
  N     -329.241    -893.006    -890.690
  C     -328.060    -893.376    -891.250
  O     -326.966    -893.226    -890.730
  C     -328.182    -893.976    -892.620
  C     -329.381    -894.126    -893.160
  O     -331.914    -898.666    -897.530
  O     -330.026    -896.946    -897.780
  H     -333.870    -892.296    -892.330
  H     -331.905    -898.566    -898.500
  H     -329.181    -892.576    -889.770
  H     -327.277    -894.266    -893.130
  H     -329.496    -894.566    -894.150
  H     -332.538    -894.316    -892.280
  H     -331.931    -891.716    -893.290
  H     -331.205    -892.636    -895.400
  H     -333.619    -894.576    -895.180
  H     -332.486    -894.516    -897.400
  H     -330.922    -894.836    -896.650
  P     -332.523    -891.376    -897.280
  C     -334.458    -891.986    -898.940
  O     -333.141    -892.216    -898.510
  O     -331.010    -891.836    -897.160
  O     -332.758    -889.896    -897.270
  H     -330.902    -892.736    -896.740
  H     -334.748    -890.926    -898.810
  H     -335.156    -892.646    -898.390
  H     -334.523    -892.226    -900.000
  H     -330.294    -899.773    -894.343
  H     -330.085    -900.000    -896.063
  H     -331.690    -899.836    -895.391

 3  4  5  6  7  8  9  10  11  12  13  23  28  29  30  31  32 0
 6-311+G(2d,p)
 ****
 33  34 0
 6-311+G(2d,p)
 ****
 1  2  14  15  16  17  18  19  20  21  22  24  25  26 0
 3-21G
 ****
 27  35  36  37  38  39  40  41  42  43  44  45 0
 3-21G
 ****


