%nproc=1
%NoSave
%Mem=1900MB
#P OB98/GEN NMR

erre ene a

0 1
  C     1833.450    -123.802    1214.313
  O     1834.572    -122.983    1214.635
  P     1836.011    -123.661    1214.698
  C     1836.756    -123.006    1212.227
  O     1836.404    -124.043    1213.156
  C     1838.232    -123.081    1211.945
  O     1838.592    -124.361    1211.353
  C     1838.748    -122.015    1210.930
  O     1838.885    -120.737    1211.533
  C     1840.055    -122.638    1210.473
  O     1841.101    -122.408    1211.457
  C     1839.720    -124.146    1210.461
  N     1839.437    -124.653    1209.107
  C     1840.463    -124.567    1208.170
  O     1841.571    -124.035    1208.490
  N     1840.189    -125.013    1206.909
  C     1838.970    -125.501    1206.497
  O     1838.796    -125.850    1205.350
  C     1837.937    -125.540    1207.497
  C     1838.151    -125.148    1208.751
  O     1835.641    -125.082    1215.362
  O     1837.031    -122.838    1215.437
  H     1834.717    -125.354    1215.174
  H     1840.704    -122.531    1212.341
  H     1840.919    -124.955    1206.251
  H     1836.941    -125.962    1207.224
  H     1837.425    -125.183    1209.504
  H     1840.533    -124.779    1210.888
  H     1840.393    -122.281    1209.522
  H     1838.047    -121.985    1210.068
  H     1838.825    -122.991    1212.895
  H     1836.519    -122.016    1212.655
  H     1836.178    -123.153    1211.308
  P     1838.765    -119.477    1210.526
  C     1836.209    -118.895    1210.722
  O     1837.210    -119.482    1209.968
  O     1839.677    -119.962    1209.294
  O     1839.182    -118.158    1211.178
  H     1839.530    -120.878    1209.071
  H     1835.385    -118.706    1210.010
  H     1836.525    -117.938    1211.156
  H     1835.864    -119.563    1211.505
  H     1832.562    -123.205    1214.310
  H     1833.355    -124.579    1215.042
  H     1833.591    -124.236    1213.345

 3  4  5  6  7  8  9  10  11  12  13  24  28  29  30  31  32 0
 6-311+G(2d,p)
 ****
 33  34 0
 6-311+G(2d,p)
 ****
 1  2  14  15  16  17  18  19  20  21  22  23  25  26  27 0
 3-21G
 ****
 35  36  37  38  39  40  41  42  43  44  45 0
 3-21G
 ****


