%nproc=1
%NoSave
%Mem=1900MB
#P OB98/GEN NMR

erre ene a

0 1
  C      136.622      33.407      80.055
  O      136.744      34.813      80.184
  P      137.082      35.725      78.909
  C      139.236      36.245      77.603
  O      138.553      35.304      78.423
  C      140.462      35.608      76.954
  O      140.024      34.570      76.045
  C      141.306      36.592      76.152
  O      142.686      36.241      76.295
  C      140.900      36.348      74.709
  O      141.953      36.718      73.802
  C      140.563      34.854      74.739
  N      139.701      34.022      69.746
  C      140.824      34.351      70.421
  N      140.977      34.582      71.744
  C      139.816      34.386      72.391
  C      138.590      34.043      71.841
  C      138.556      33.861      70.447
  N      137.410      33.513      69.763
  N      137.620      33.963      72.820
  C      138.253      34.229      73.940
  N      139.584      34.482      73.736
  O      136.892      37.187      79.110
  O      136.142      35.157      77.749
  H      141.609      36.586      72.895
  H      135.807      35.888      77.194
  H      141.724      34.446      69.817
  H      137.797      34.264      74.918
  H      141.458      34.235      74.599
  H      140.019      36.955      74.468
  H      141.152      37.632      76.456
  H      141.063      35.126      77.738
  H      139.555      37.082      78.232
  H      137.506      33.285      68.785
  H      136.603      33.223      70.301
  H      138.549      36.627      76.838
  P      143.735      37.461      76.199
  C      144.184      39.208      74.321
  O      143.296      38.272      74.889
  O      145.150      36.990      76.269
  O      143.272      38.369      77.435
  H      142.327      38.215      77.659
  H      143.694      39.684      73.466
  H      145.087      38.704      73.965
  H      144.450      39.976      75.050
  H      136.396      32.980      81.009
  H      137.543      33.001      79.692
  H      135.835      33.179      79.366

 3  4  5  6  7  8  9  10  11  12  22  25  29  30  31  32 0
 6-311+G(2d,p)
 ****
 33  36  37 0
 6-311+G(2d,p)
 ****
 1  2  13  14  15  16  17  18  19  20  21  23  24  26 0
 3-21G
 ****
 27  28  34  35  38  39  40  41  42  43  44  45  46  47  48 0
 3-21G
 ****


