%nproc=1
%NoSave
%Mem=1900MB
#P OB98/GEN NMR

erre ene a

0 1
  C     -158.825      69.244     590.602
  O     -158.415      70.141     589.597
  H     -159.351      68.406     590.128
  H     -159.503      69.728     591.306
  H     -157.951      68.840     591.134
  P     -157.671      71.494     590.036
  C     -155.215      70.687     589.957
  O     -156.318      71.062     590.780
  C     -153.907      71.183     590.576
  O     -153.706      70.465     591.827
  C     -152.693      70.919     589.669
  O     -151.909      72.087     589.428
  C     -152.000      69.738     590.343
  O     -150.609      69.646     590.097
  C     -152.370      69.904     591.820
  N     -152.338      68.669     592.593
  C     -151.307      68.528     593.524
  O     -150.454      69.377     593.766
  N     -151.301      67.344     594.208
  C     -152.181      66.306     594.063
  O     -152.122      65.279     594.718
  C     -153.222      66.507     593.044
  C     -153.257      67.653     592.371
  O     -158.508      72.481     590.777
  O     -157.133      72.103     588.654
  H     -150.263      68.924     590.665
  H     -157.717      72.841     588.371
  H     -150.570      67.240     594.910
  H     -153.926      65.704     592.895
  H     -154.010      67.835     591.607
  H     -151.708      70.629     592.306
  H     -152.459      68.812     589.964
  H     -153.010      70.621     588.666
  H     -154.008      72.251     590.816
  H     -155.365      71.143     588.973
  H     -155.186      69.596     589.851
  P     -150.886      72.268     588.211
  C     -152.503      73.974     587.040
  O     -151.709      72.799     586.942
  O     -149.954      71.127     587.981
  O     -150.011      73.545     588.645
  H     -149.105      73.395     588.284
  H     -152.972      74.167     586.098
  H     -151.881      74.803     587.305
  H     -153.253      73.836     587.790

 6  7  8  9  10  11  12  13  14  15  16  26  31  32  33  34  35 0
 6-311+G(2d,p)
 ****
 36  37 0
 6-311+G(2d,p)
 ****
 1  2  3  4  5  17  18  19  20  21  22  23  24  25 0
 3-21G
 ****
 27  28  29  30  38  39  40  41  42  43  44  45 0
 3-21G
 ****


