%nproc=1
%NoSave
%Mem=1900MB
#P OB98/GEN NMR

erre ene a

0 1
  C      145.886       6.897     232.734
  O      144.690       7.019     233.483
  P      144.587       8.200     234.561
  C      146.502       7.534     236.216
  O      145.108       7.614     235.955
  C      146.740       6.864     237.567
  O      146.477       7.779     238.652
  C      145.832       5.668     237.832
  O      146.287       4.505     237.139
  C      145.908       5.541     239.344
  O      147.074       4.801     239.740
  C      146.010       7.015     239.775
  N      144.761       7.533     240.313
  C      144.651       7.574     241.703
  O      145.549       7.186     242.446
  N      143.475       8.055     242.197
  C      142.389       8.436     241.465
  O      141.335       8.795     241.975
  C      142.535       8.330     240.009
  C      143.695       7.898     239.509
  O      143.019       8.399     234.779
  O      145.263       9.474     234.155
  H      147.853       5.283     239.404
  H      142.815       9.344     234.930
  H      143.390       8.118     243.212
  H      141.690       8.620     239.391
  H      143.824       7.798     238.422
  H      146.790       7.126     240.548
  H      145.039       5.008     239.757
  H      144.797       5.904     237.533
  H      147.798       6.555     237.623
  H      146.926       8.553     236.226
  H      146.985       6.970     235.415
  P      145.166       3.616     236.394
  C      143.853       2.983     238.563
  O      144.682       2.560     237.493
  O      146.091       2.772     235.378
  O      144.118       4.438     235.721
  H      146.979       2.588     235.761
  H      143.158       3.775     238.248
  H      144.484       3.357     239.373
  H      143.281       2.147     238.919
  H      145.803       6.069     232.062
  H      146.708       6.735     233.399
  H      146.050       7.795     232.175

 3  4  5  6  7  8  9  10  11  12  13  23  28  29  30  31  32 0
 6-311+G(2d,p)
 ****
 33  34 0
 6-311+G(2d,p)
 ****
 1  2  14  15  16  17  18  19  20  21  22  24  25  26 0
 3-21G
 ****
 27  35  36  37  38  39  40  41  42  43  44  45 0
 3-21G
 ****


