%nproc=1
%NoSave
%Mem=1900MB
#P OB98/GEN NMR

erre ene a

0 1
  C     1096.569    1134.278     -87.584
  O     1095.963    1133.804     -86.375
  P     1094.383    1133.605     -86.212
  C     1093.577    1135.162     -84.326
  O     1093.974    1133.857     -84.679
  C     1094.128    1135.581     -82.935
  O     1095.510    1135.910     -83.046
  C     1093.440    1136.794     -82.327
  O     1092.181    1136.461     -81.816
  C     1094.490    1137.197     -81.278
  O     1094.352    1136.420     -80.077
  C     1095.811    1136.896     -82.018
  N     1096.440    1138.063     -82.556
  C     1097.219    1138.843     -81.647
  O     1097.254    1138.510     -80.453
  N     1097.852    1139.953     -82.117
  C     1097.703    1140.306     -83.350
  N     1098.411    1141.418     -83.771
  C     1096.873    1139.576     -84.312
  C     1096.283    1138.490     -83.845
  O     1093.856    1132.335     -86.789
  O     1093.728    1134.863     -86.972
  H     1093.466    1136.626     -79.733
  H     1092.874    1134.595     -87.342
  H     1096.748    1139.940     -85.324
  H     1095.617    1137.894     -84.480
  H     1096.499    1136.381     -81.319
  H     1094.392    1138.259     -80.997
  H     1093.357    1137.596     -83.069
  H     1094.025    1134.720     -82.284
  H     1098.983    1141.891     -83.088
  H     1092.479    1135.201     -84.297
  H     1098.347    1141.781     -84.701
  H     1093.921    1135.872     -85.100
  P     1090.982    1137.525     -81.863
  C     1090.427    1137.137     -79.400
  O     1089.942    1137.136     -80.725
  O     1090.410    1137.764     -83.221
  O     1091.644    1138.886     -81.295
  H     1091.220    1139.641     -81.724
  H     1089.581    1137.256     -78.713
  H     1091.135    1137.942     -79.230
  H     1090.901    1136.161     -79.199
  H     1097.630    1134.329     -87.455
  H     1096.191    1135.252     -87.815
  H     1096.339    1133.607     -88.385

 3  4  5  6  7  8  9  10  11  12  13  23  27  28  29  30  32 0
 6-311+G(2d,p)
 ****
 34  35 0
 6-311+G(2d,p)
 ****
 1  2  14  15  16  17  18  19  20  21  22  24  25  26 0
 3-21G
 ****
 31  33  36  37  38  39  40  41  42  43  44  45  46 0
 3-21G
 ****


