%nproc=1
%NoSave
%Mem=1900MB
#P OB98/GEN NMR

erre ene a

0 1
  C        7.044    -139.580     688.725
  O        6.318    -139.962     687.575
  H        6.381    -139.644     689.593
  H        7.393    -138.549     688.631
  H        7.891    -140.250     688.884
  P        7.068    -139.948     686.158
  C        7.249    -137.387     685.821
  O        6.575    -138.585     685.463
  C        6.755    -136.229     684.958
  O        6.797    -136.565     683.554
  C        5.311    -135.810     685.208
  O        5.122    -135.104     686.424
  C        5.076    -134.937     683.990
  O        5.726    -133.669     684.168
  C        5.768    -135.775     682.891
  N        4.837    -136.646     682.169
  C        4.058    -136.047     681.177
  O        4.160    -134.845     680.938
  N        3.150    -136.821     680.492
  C        3.018    -138.075     680.790
  N        2.100    -138.791     680.084
  C        3.804    -138.743     681.846
  C        4.686    -137.979     682.487
  O        6.918    -141.183     685.325
  O        8.590    -139.598     686.513
  H        6.686    -133.838     684.150
  H        9.101    -139.588     685.667
  H        3.633    -139.782     682.076
  H        5.295    -138.397     683.282
  H        6.277    -135.127     682.165
  H        4.018    -134.737     683.800
  H        4.639    -136.677     685.153
  H        7.447    -135.390     685.108
  H        1.573    -138.306     679.364
  H        8.322    -137.546     685.688
  H        1.874    -139.753     680.300
  H        7.052    -137.146     686.869
  P        3.991    -135.664     687.423
  C        2.177    -134.891     685.716
  O        2.642    -134.889     687.056
  O        4.427    -135.050     688.833
  O        3.861    -137.154     687.459
  H        4.913    -135.710     689.362
  H        1.269    -134.329     685.653
  H        1.995    -135.898     685.403
  H        2.916    -134.448     685.081

 6  7  8  9  10  11  12  13  14  15  16  26  30  31  32  33  35 0
 6-311+G(2d,p)
 ****
 37  38 0
 6-311+G(2d,p)
 ****
 1  2  3  4  5  17  18  19  20  21  22  23  24  25 0
 3-21G
 ****
 27  28  29  34  36  39  40  41  42  43  44  45  46 0
 3-21G
 ****


