%nproc=1
%NoSave
%Mem=1900MB
#P OB98/GEN NMR

erre ene a

0 1
  C     -103.520     704.706    -139.480
  O     -104.937     704.560    -139.574
  P     -105.725     704.462    -138.179
  C     -107.818     705.736    -139.019
  O     -106.738     705.712    -138.100
  C     -108.919     706.692    -138.545
  O     -109.478     706.231    -137.276
  C     -108.436     708.133    -138.324
  O     -109.527     708.995    -138.693
  C     -108.204     708.165    -136.823
  O     -108.104     709.481    -136.292
  C     -109.404     707.344    -136.357
  N     -110.113     708.626    -131.468
  C     -110.305     709.311    -132.625
  N     -110.090     708.896    -133.894
  C     -109.634     707.628    -133.901
  C     -109.389     706.810    -132.811
  C     -109.647     707.357    -131.542
  N     -109.438     706.676    -130.367
  N     -108.895     705.582    -133.231
  C     -108.783     705.698    -134.542
  N     -109.293     706.881    -134.996
  O     -104.603     704.811    -137.091
  O     -106.351     703.129    -137.941
  H     -107.973     709.437    -135.326
  H     -104.249     703.997    -136.691
  H     -110.680     710.322    -132.511
  H     -108.347     704.965    -135.199
  H     -110.344     707.904    -136.438
  H     -107.266     707.648    -136.587
  H     -107.554     708.398    -138.914
  H     -109.730     706.678    -139.285
  H     -108.236     704.738    -139.139
  H     -109.655     707.153    -129.505
  H     -109.082     705.734    -130.379
  H     -107.439     706.035    -140.007
  P     -109.813     709.251    -140.250
  C     -112.206     708.402    -139.875
  O     -111.005     708.235    -140.610
  O     -108.555     708.499    -140.914
  O     -109.967     710.677    -140.671
  H     -108.459     707.605    -140.547
  H     -112.950     707.707    -140.269
  H     -112.576     709.424    -139.978
  H     -112.032     708.170    -138.821
  H     -103.101     704.761    -140.463
  H     -103.108     703.864    -138.963
  H     -103.289     705.602    -138.943

 3  4  5  6  7  8  9  10  11  12  22  25  29  30  31  32 0
 6-311+G(2d,p)
 ****
 33  36  37 0
 6-311+G(2d,p)
 ****
 1  2  13  14  15  16  17  18  19  20  21  23  24  26 0
 3-21G
 ****
 27  28  34  35  38  39  40  41  42  43  44  45  46  47  48 0
 3-21G
 ****


