%nproc=1
%NoSave
%Mem=1900MB
#P OB98/GEN NMR

erre ene a

0 1
  C     -148.442      42.240      -0.819
  O     -149.326      43.149      -0.196
  H     -147.467      42.720      -0.932
  H     -148.808      41.957      -1.809
  H     -148.321      41.348      -0.198
  P     -150.872      42.752      -0.056
  C     -150.450      42.514       2.473
  O     -151.285      43.063       1.463
  C     -150.900      42.976       3.861
  O     -150.953      44.428       3.869
  C     -152.281      42.447       4.265
  O     -152.259      42.157       5.666
  C     -153.186      43.626       3.978
  O     -154.374      43.569       4.744
  C     -152.276      44.819       4.282
  N     -152.733      46.024       3.589
  C     -153.810      46.706       4.166
  O     -154.315      46.297       5.213
  N     -154.332      47.793       3.515
  C     -153.861      48.141       2.360
  N     -154.451      49.203       1.751
  C     -152.744      47.434       1.699
  C     -152.232      46.398       2.364
  O     -151.247      41.391      -0.539
  O     -151.631      43.896      -0.880
  H     -154.152      43.646       5.697
  H     -151.742      43.622      -1.810
  H     -152.391      47.758       0.732
  H     -151.417      45.813       1.950
  H     -152.247      45.024       5.361
  H     -153.468      43.624       2.918
  H     -152.578      41.555       3.703
  H     -150.137      42.683       4.591
  H     -155.229      49.640       2.230
  H     -149.426      42.857       2.287
  H     -154.200      49.539       0.833
  H     -150.469      41.421       2.418
  P     -152.765      40.737       6.216
  C     -150.786      39.133       5.963
  O     -151.519      39.955       6.866
  O     -153.560      39.935       5.238
  O     -153.662      41.118       7.490
  H     -154.364      40.449       7.601
  H     -149.982      38.658       6.486
  H     -150.390      39.736       5.173
  H     -151.435      38.388       5.552

 6  7  8  9  10  11  12  13  14  15  16  26  30  31  32  33  35 0
 6-311+G(2d,p)
 ****
 37  38 0
 6-311+G(2d,p)
 ****
 1  2  3  4  5  17  18  19  20  21  22  23  24  25 0
 3-21G
 ****
 27  28  29  34  36  39  40  41  42  43  44  45  46 0
 3-21G
 ****


