%nproc=1
%NoSave
%Mem=1900MB
#P OB98/GEN NMR

erre ene a

0 1
  C      -19.883     110.897     232.229
  O      -21.176     111.061     232.785
  P      -22.349     111.625     231.846
  C      -22.379     113.971     233.031
  O      -22.200     113.222     231.843
  C      -23.199     115.234     232.747
  O      -22.421     116.118     231.893
  C      -24.537     114.978     232.041
  O      -25.473     115.941     232.545
  C      -24.211     115.263     230.584
  O      -25.361     115.571     229.818
  C      -23.222     116.425     230.736
  N      -22.373     116.623     229.561
  C      -22.160     117.929     229.128
  O      -22.661     118.919     229.659
  N      -21.361     118.064     228.020
  C      -20.823     117.045     227.287
  O      -20.128     117.225     226.291
  C      -21.120     115.690     227.765
  C      -21.861     115.544     228.867
  O      -23.632     111.353     232.759
  O      -22.391     110.996     230.495
  H      -23.458     111.474     233.708
  H      -25.075     115.760     228.904
  H      -21.162     119.003     227.708
  H      -20.726     114.854     227.198
  H      -22.095     114.553     229.239
  H      -23.766     117.351     230.961
  H      -23.732     114.384     230.141
  H      -24.916     113.966     232.215
  H      -23.359     115.759     233.698
  H      -21.401     114.260     233.428
  H      -22.875     113.345     233.782
  P      -26.712     115.407     233.426
  C      -28.263     115.123     231.335
  O      -27.644     114.537     232.458
  O      -27.549     116.768     233.594
  O      -26.337     114.792     234.735
  H      -27.668     117.243     232.755
  H      -28.558     114.332     230.642
  H      -27.581     115.802     230.814
  H      -29.158     115.670     231.647
  H      -19.219     110.516     232.976
  H      -19.522     111.842     231.880
  H      -19.931     110.209     231.411

 3  4  5  6  7  8  9  10  11  12  13  24  28  29  30  31  32 0
 6-311+G(2d,p)
 ****
 33  34 0
 6-311+G(2d,p)
 ****
 1  2  14  15  16  17  18  19  20  21  22  23  25  26  27 0
 3-21G
 ****
 35  36  37  38  39  40  41  42  43  44  45 0
 3-21G
 ****


