%nproc=1
%NoSave
%Mem=1900MB
#P OB98/GEN NMR

erre ene a

0 1
  C     1066.696    -234.337    -124.168
  O     1067.833    -235.172    -124.022
  P     1069.295    -234.503    -123.886
  C     1070.374    -236.835    -123.717
  O     1070.371    -235.587    -124.401
  C     1071.425    -237.757    -124.323
  O     1071.031    -238.144    -125.675
  C     1072.803    -237.141    -124.475
  O     1073.480    -237.103    -123.223
  C     1073.436    -238.065    -125.516
  O     1073.933    -239.250    -124.877
  C     1072.247    -238.386    -126.412
  N     1074.305    -237.927    -131.068
  C     1074.637    -238.719    -130.011
  N     1074.058    -238.747    -128.783
  C     1073.053    -237.842    -128.702
  C     1072.644    -236.972    -129.682
  C     1073.287    -237.034    -130.929
  N     1072.930    -236.300    -132.036
  N     1071.598    -236.182    -129.210
  C     1071.410    -236.568    -127.967
  N     1072.232    -237.620    -127.639
  O     1069.598    -233.889    -122.563
  O     1069.311    -233.396    -125.052
  H     1074.417    -239.767    -125.564
  H     1069.450    -232.524    -124.650
  H     1075.459    -239.393    -130.172
  H     1070.691    -236.146    -127.277
  H     1072.239    -239.451    -126.703
  H     1074.277    -237.586    -126.048
  H     1072.716    -236.136    -124.901
  H     1071.484    -238.666    -123.723
  H     1069.382    -237.290    -123.817
  H     1073.362    -236.542    -132.909
  H     1071.997    -235.878    -132.048
  H     1070.591    -236.660    -122.649
  P     1074.542    -235.952    -122.941
  C     1075.614    -237.213    -120.956
  O     1075.806    -236.639    -122.254
  O     1074.018    -234.738    -122.214
  O     1075.104    -235.561    -124.392
  H     1075.333    -234.608    -124.410
  H     1075.609    -236.407    -120.225
  H     1076.409    -237.905    -120.754
  H     1074.645    -237.753    -120.935
  H     1065.817    -234.942    -124.244
  H     1066.799    -233.745    -125.054
  H     1066.614    -233.694    -123.317

 3  4  5  6  7  8  9  10  11  12  22  25  29  30  31  32 0
 6-311+G(2d,p)
 ****
 33  36  37 0
 6-311+G(2d,p)
 ****
 1  2  13  14  15  16  17  18  19  20  21  23  24  26 0
 3-21G
 ****
 27  28  34  35  38  39  40  41  42  43  44  45  46  47  48 0
 3-21G
 ****


