%nproc=1
%NoSave
%Mem=1900MB
#P OB98/GEN NMR

erre ene a

0 1
  C     1941.212    -137.709    -374.049
  O     1941.196    -136.950    -372.813
  P     1941.273    -137.747    -371.414
  C     1943.521    -136.747    -370.619
  O     1942.837    -137.943    -370.992
  C     1945.020    -137.052    -370.396
  O     1945.202    -137.981    -369.251
  C     1945.692    -137.732    -371.633
  O     1947.053    -137.334    -371.729
  C     1945.657    -139.222    -371.221
  O     1946.634    -139.950    -371.977
  C     1945.929    -139.095    -369.713
  N     1947.483    -143.225    -367.063
  C     1948.171    -142.167    -367.545
  N     1947.674    -141.090    -368.219
  C     1946.332    -141.184    -368.352
  C     1945.492    -142.189    -367.869
  C     1946.117    -143.231    -367.194
  N     1945.430    -144.302    -366.690
  N     1944.155    -141.911    -368.211
  C     1944.221    -140.788    -368.910
  N     1945.543    -140.296    -369.006
  O     1940.476    -139.003    -371.326
  O     1940.771    -136.657    -370.320
  H     1947.484    -139.746    -371.650
  H     1940.140    -137.086    -369.734
  H     1949.236    -142.167    -367.404
  H     1943.354    -140.355    -369.345
  H     1947.001    -138.919    -369.503
  H     1944.668    -139.608    -371.390
  H     1945.187    -137.543    -372.561
  H     1945.532    -136.130    -370.136
  H     1943.106    -136.347    -369.679
  H     1945.931    -145.077    -366.311
  H     1944.451    -144.457    -366.901
  H     1943.386    -135.982    -371.391
  P     1947.366    -136.155    -372.778
  C     1948.233    -134.126    -371.295
  O     1947.123    -134.779    -372.036
  O     1946.639    -136.328    -374.092
  O     1948.968    -136.266    -372.922
  H     1949.453    -136.257    -372.098
  H     1947.858    -133.194    -370.952
  H     1949.045    -134.045    -371.975
  H     1948.446    -134.790    -370.428
  H     1941.155    -137.038    -374.880
  H     1940.374    -138.375    -374.070
  H     1942.118    -138.274    -374.109

 3  4  5  6  7  8  9  10  11  12  22  25  29  30  31  32 0
 6-311+G(2d,p)
 ****
 33  36  37 0
 6-311+G(2d,p)
 ****
 1  2  13  14  15  16  17  18  19  20  21  23  24  26 0
 3-21G
 ****
 27  28  34  35  38  39  40  41  42  43  44  45  46  47  48 0
 3-21G
 ****


