%nproc=1
%NoSave
%Mem=1900MB
#P OB98/GEN NMR

erre ene a

0 1
  C     -628.609     565.881     542.019
  O     -628.060     565.306     543.198
  H     -628.405     566.953     542.020
  H     -629.693     565.745     541.986
  H     -628.148     565.434     541.136
  P     -628.380     563.766     543.505
  C     -627.151     561.940     544.853
  O     -627.052     563.190     544.188
  C     -626.005     561.014     544.434
  O     -626.194     560.592     543.065
  C     -624.647     561.701     544.473
  O     -624.169     561.804     545.805
  C     -623.840     560.773     543.569
  O     -623.414     559.599     544.263
  C     -624.879     560.426     542.472
  N     -624.748     561.260     541.277
  C     -623.627     560.991     540.483
  O     -622.830     560.098     540.782
  N     -623.438     561.773     539.359
  C     -624.282     562.701     539.057
  N     -624.026     563.426     537.928
  C     -625.475     563.008     539.864
  C     -625.641     562.260     540.960
  O     -628.897     562.945     542.376
  O     -629.421     563.831     544.730
  H     -622.482     559.748     544.491
  H     -630.335     563.871     544.398
  H     -626.156     563.800     539.581
  H     -626.489     562.414     541.604
  H     -624.795     559.380     542.166
  H     -622.949     561.278     543.176
  H     -624.694     562.677     543.992
  H     -626.025     560.126     545.078
  H     -623.194     563.205     537.407
  H     -628.114     561.487     544.587
  H     -624.655     564.130     537.560
  H     -627.136     562.075     545.947
  P     -622.969     562.815     546.162
  C     -621.975     563.699     548.367
  O     -623.105     563.098     547.738
  O     -622.878     564.022     545.293
  O     -621.690     561.867     546.077
  H     -621.436     561.663     545.139
  H     -622.179     563.839     549.408
  H     -621.776     564.647     547.912
  H     -621.123     563.062     548.253

 6  7  8  9  10  11  12  13  14  15  16  26  30  31  32  33  35 0
 6-311+G(2d,p)
 ****
 37  38 0
 6-311+G(2d,p)
 ****
 1  2  3  4  5  17  18  19  20  21  22  23  24  25 0
 3-21G
 ****
 27  28  29  34  36  39  40  41  42  43  44  45  46 0
 3-21G
 ****


