%nproc=1
%NoSave
%Mem=1900MB
#P OB98/GEN NMR

erre ene a

0 1
  C      -87.884      42.553     112.250
  O      -87.725      41.149     112.292
  H      -87.605      42.964     113.223
  H      -88.924      42.815     112.044
  H      -87.231      42.987     111.487
  P      -88.133      40.289     111.004
  C      -86.289      41.297     109.505
  O      -86.803      40.120     110.121
  C      -84.916      41.011     108.886
  O      -83.951      40.943     109.964
  C      -84.881      39.679     108.122
  O      -84.398      39.810     106.787
  C      -84.116      38.756     109.063
  O      -83.445      37.689     108.426
  C      -83.202      39.721     109.826
  N      -82.778      39.226     111.133
  C      -82.310      37.917     111.199
  O      -82.199      37.155     110.240
  N      -81.938      37.483     112.447
  C      -81.998      38.206     113.600
  O      -81.646      37.765     114.687
  C      -82.524      39.574     113.470
  C      -82.886      40.013     112.262
  O      -89.325      40.778     110.251
  O      -88.368      38.814     111.582
  H      -82.875      38.070     107.727
  H      -89.325      38.644     111.660
  H      -81.586      36.540     112.503
  H      -82.595      40.172     114.367
  H      -83.276      41.019     112.130
  H      -82.304      39.937     109.247
  H      -84.832      38.312     109.765
  H      -85.894      39.282     107.984
  H      -84.636      41.854     108.243
  H      -86.206      42.071     110.274
  H      -86.982      41.639     108.728
  P      -85.076      39.145     105.505
  C      -86.664      41.097     104.771
  O      -85.509      40.315     104.505
  O      -86.087      38.087     105.788
  O      -83.833      38.442     104.753
  H      -84.188      37.640     104.317
  H      -86.789      41.823     103.995
  H      -86.549      41.595     105.711
  H      -87.524      40.462     104.807

 6  7  8  9  10  11  12  13  14  15  16  26  31  32  33  34  35 0
 6-311+G(2d,p)
 ****
 36  37 0
 6-311+G(2d,p)
 ****
 1  2  3  4  5  17  18  19  20  21  22  23  24  25 0
 3-21G
 ****
 27  28  29  30  38  39  40  41  42  43  44  45 0
 3-21G
 ****


