%nproc=1
%NoSave
%Mem=1900MB
#P OB98/GEN NMR

erre ene a

0 1
  C      122.913    -383.435    -639.481
  O      122.079    -384.121    -638.557
  P      120.655    -384.662    -639.094
  C      120.003    -385.625    -636.769
  O      119.674    -384.739    -637.825
  C      118.756    -386.108    -636.036
  O      118.101    -384.952    -635.412
  C      117.697    -386.782    -636.932
  O      117.085    -387.808    -636.153
  C      116.742    -385.649    -637.222
  O      115.470    -386.064    -637.711
  C      116.727    -384.968    -635.855
  N      112.872    -381.873    -634.441
  C      113.137    -383.185    -634.170
  N      114.184    -383.933    -634.575
  C      115.020    -383.194    -635.337
  C      114.883    -381.884    -635.711
  C      113.738    -381.206    -635.226
  N      113.468    -379.876    -635.514
  N      115.945    -381.477    -636.506
  C      116.696    -382.551    -636.629
  N      116.200    -383.594    -635.924
  O      120.948    -386.208    -639.421
  O      120.109    -383.933    -640.278
  H      115.545    -386.347    -638.640
  H      120.497    -386.494    -640.226
  H      112.411    -383.702    -633.548
  H      117.604    -382.609    -637.218
  H      116.136    -385.516    -635.118
  H      117.159    -384.992    -637.978
  H      118.139    -387.237    -637.829
  H      119.067    -386.785    -635.221
  H      120.648    -385.105    -636.049
  H      112.543    -379.555    -635.307
  H      114.014    -379.454    -636.260
  H      120.579    -386.478    -637.174
  P      116.615    -389.161    -636.880
  C      116.902    -390.117    -634.492
  O      116.097    -390.108    -635.663
  O      118.030    -389.851    -637.219
  O      115.701    -389.007    -638.050
  H      118.615    -389.871    -636.437
  H      116.381    -390.695    -633.724
  H      117.061    -389.098    -634.128
  H      117.875    -390.590    -634.716
  H      123.817    -383.136    -638.992
  H      122.402    -382.569    -639.848
  H      123.148    -384.084    -640.299

 3  4  5  6  7  8  9  10  11  12  22  25  29  30  31  32 0
 6-311+G(2d,p)
 ****
 33  36  37 0
 6-311+G(2d,p)
 ****
 1  2  13  14  15  16  17  18  19  20  21  23  24  26 0
 3-21G
 ****
 27  28  34  35  38  39  40  41  42  43  44  45  46  47  48 0
 3-21G
 ****


