%nproc=1
%NoSave
%Mem=1900MB
#P OB98/GEN NMR

erre ene a

0 1
  C      -76.691    -451.199     -58.370
  O      -76.372    -450.191     -57.430
  H      -76.723    -450.756     -59.370
  H      -77.683    -451.604     -58.134
  H      -75.952    -451.999     -58.357
  P      -75.886    -450.668     -55.978
  C      -74.630    -448.503     -55.297
  O      -75.754    -449.342     -55.078
  C      -74.877    -447.119     -54.689
  O      -75.825    -446.404     -55.536
  C      -75.449    -447.148     -53.266
  O      -74.882    -446.064     -52.514
  C      -76.922    -446.858     -53.488
  O      -77.551    -446.326     -52.328
  C      -76.840    -445.884     -54.656
  N      -81.278    -443.547     -54.375
  C      -80.108    -443.339     -53.673
  N      -80.133    -442.397     -52.709
  N      -78.999    -443.993     -53.905
  C      -79.104    -444.888     -54.917
  C      -80.205    -445.198     -55.678
  C      -81.432    -444.475     -55.406
  O      -82.504    -444.632     -55.974
  N      -79.923    -446.209     -56.565
  C      -78.666    -446.528     -56.315
  N      -78.124    -445.754     -55.323
  O      -74.367    -451.103     -56.237
  O      -76.684    -451.773     -55.367
  H      -77.597    -447.030     -51.654
  H      -74.322    -452.065     -56.404
  H      -82.105    -443.021     -54.149
  H      -78.112    -447.315     -56.808
  H      -76.542    -444.871     -54.342
  H      -77.441    -447.779     -53.775
  H      -80.931    -441.824     -52.491
  H      -75.272    -448.095     -52.739
  H      -79.270    -442.199     -52.212
  H      -73.928    -446.557     -54.718
  H      -74.472    -448.394     -56.378
  H      -73.743    -448.955     -54.854
  P      -73.893    -446.414     -51.300
  C      -72.073    -444.834     -52.277
  O      -72.830    -445.223     -51.142
  O      -73.010    -447.616     -51.895
  O      -74.596    -446.821     -50.044
  H      -72.787    -448.247     -51.179
  H      -71.415    -444.034     -52.010
  H      -72.734    -444.508     -53.052
  H      -71.499    -445.667     -52.625

 6  7  8  9  10  11  12  13  14  15  26  29  33  34 0
 6-311+G(2d,p)
 ****
 36  38  39  40  41 0
 6-311+G(2d,p)
 ****
 1  2  3  4  5  16  17  18  19  20  21  22  23  24  25 0
 3-21G
 ****
 27  28  30  31  32  35  37  42  43  44  45  46  47 0
 3-21G
 ****
 48  49 0
 3-21G
 ****


