%nproc=1
%NoSave
%Mem=1900MB
#P OB98/GEN NMR

erre ene a

0 1
  C      248.626    -185.334     293.984
  O      249.195    -186.043     292.895
  H      248.971    -185.792     294.917
  H      247.534    -185.393     293.955
  H      248.943    -184.289     293.963
  P      248.716    -185.662     291.413
  C      246.541    -187.003     291.828
  O      247.118    -185.762     291.438
  C      245.249    -187.251     291.051
  O      244.375    -186.112     291.163
  C      245.479    -187.458     289.559
  O      245.987    -188.754     289.298
  C      244.091    -187.180     289.018
  O      243.228    -188.317     289.176
  C      243.633    -186.010     289.924
  N      243.828    -184.705     289.298
  C      243.006    -184.415     288.203
  O      242.175    -185.238     287.818
  N      243.168    -183.214     287.563
  C      244.055    -182.363     287.988
  N      244.164    -181.191     287.305
  C      244.929    -182.619     289.146
  C      244.767    -183.799     289.747
  O      249.361    -186.405     290.283
  O      248.981    -184.084     291.323
  H      243.692    -189.064     288.746
  H      249.882    -183.907     290.993
  H      245.654    -181.885     289.466
  H      245.369    -184.066     290.611
  H      242.572    -186.114     290.178
  H      244.116    -186.929     287.960
  H      246.154    -186.688     289.172
  H      244.737    -188.116     291.496
  H      243.552    -181.062     286.511
  H      246.331    -186.940     292.901
  H      244.751    -180.421     287.599
  H      247.246    -187.828     291.659
  P      247.276    -188.954     288.368
  C      246.399    -190.178     286.265
  O      246.720    -188.915     286.859
  O      248.132    -190.128     288.703
  O      248.038    -187.546     288.495
  H      248.487    -187.459     289.375
  H      246.042    -190.023     285.268
  H      245.641    -190.662     286.844
  H      247.274    -190.793     286.239

 6  7  8  9  10  11  12  13  14  15  16  26  30  31  32  33  35 0
 6-311+G(2d,p)
 ****
 37  38 0
 6-311+G(2d,p)
 ****
 1  2  3  4  5  17  18  19  20  21  22  23  24  25 0
 3-21G
 ****
 27  28  29  34  36  39  40  41  42  43  44  45  46 0
 3-21G
 ****


