%nproc=1
%NoSave
%Mem=1900MB
#P OB98/GEN NMR

erre ene a

0 1
  C     -170.714     197.368      69.989
  O     -171.295     196.507      69.029
  H     -169.675     197.558      69.706
  H     -170.730     196.893      70.974
  H     -171.253     198.319      70.024
  P     -172.867     196.235      69.158
  C     -173.164     196.000      66.559
  O     -173.318     195.419      67.848
  C     -173.065     194.902      65.502
  O     -174.240     194.067      65.505
  C     -172.995     195.425      64.077
  O     -171.761     196.036      63.778
  C     -173.255     194.142      63.301
  O     -172.073     193.333      63.229
  C     -174.329     193.463      64.186
  N     -175.668     193.582      63.627
  C     -176.006     192.638      62.648
  O     -175.196     191.771      62.317
  N     -177.239     192.722      62.052
  C     -178.071     193.645      62.417
  N     -179.273     193.680      61.781
  C     -177.767     194.643      63.462
  C     -176.558     194.556      64.014
  O     -173.495     197.683      68.905
  O     -173.300     195.587      70.431
  H     -171.368     193.908      62.872
  H     -173.194     198.100      68.081
  H     -178.496     195.389      63.740
  H     -176.254     195.249      64.787
  H     -174.106     192.396      64.311
  H     -173.567     194.340      62.275
  H     -173.831     196.109      63.883
  H     -172.198     194.275      65.744
  H     -179.439     192.993      61.055
  H     -172.285     196.649      66.526
  H     -179.986     194.372      61.957
  H     -174.043     196.625      66.373
  P     -171.710     197.415      62.963
  C     -169.794     198.075      64.551
  O     -170.242     198.023      63.201
  O     -172.826     198.362      63.246
  O     -171.634     196.938      61.436
  H     -170.861     196.387      61.220
  H     -168.811     198.495      64.585
  H     -169.773     197.086      64.958
  H     -170.462     198.683      65.125

 6  7  8  9  10  11  12  13  14  15  16  26  30  31  32  33  35 0
 6-311+G(2d,p)
 ****
 37  38 0
 6-311+G(2d,p)
 ****
 1  2  3  4  5  17  18  19  20  21  22  23  24  25 0
 3-21G
 ****
 27  28  29  34  36  39  40  41  42  43  44  45  46 0
 3-21G
 ****


