%nproc=1
%NoSave
%Mem=1900MB
#P OB98/GEN NMR

erre ene a

0 1
  C       79.644    -201.691     491.834
  O       80.948    -202.222     491.562
  P       82.180    -201.493     492.297
  C       82.972    -200.211     490.181
  O       83.297    -201.161     491.188
  C       83.954    -200.269     489.007
  O       85.271    -199.878     489.466
  C       84.093    -201.650     488.354
  O       84.260    -201.472     486.940
  C       85.414    -202.164     488.905
  O       85.993    -203.163     488.069
  C       86.204    -200.861     488.987
  N       91.165    -201.811     489.265
  C       90.351    -201.695     488.154
  N       90.936    -201.880     486.951
  N       89.071    -201.421     488.222
  C       88.629    -201.227     489.487
  C       89.339    -201.305     490.663
  C       90.743    -201.651     490.578
  O       91.508    -201.819     491.524
  N       88.539    -201.047     491.751
  C       87.351    -200.820     491.232
  N       87.351    -200.926     489.864
  O       82.832    -202.673     493.163
  O       81.772    -200.346     493.159
  H       86.306    -202.712     487.260
  H       82.865    -202.412     494.105
  H       92.139    -202.045     489.157
  H       86.452    -200.603     491.796
  H       86.552    -200.543     487.995
  H       85.244    -202.601     489.897
  H       91.926    -202.029     486.827
  H       83.258    -202.330     488.547
  H       90.363    -201.754     486.124
  H       83.638    -199.527     488.262
  H       82.990    -199.207     490.615
  H       81.950    -200.406     489.833
  P       82.920    -201.486     486.055
  C       83.753    -202.777     483.956
  O       83.404    -201.533     484.527
  O       82.348    -200.003     486.229
  O       81.929    -202.528     486.462
  H       81.379    -199.995     486.113
  H       83.459    -203.621     484.587
  H       84.836    -202.805     483.805
  H       83.255    -202.874     482.988
  H       78.911    -202.252     491.294
  H       79.605    -200.666     491.528
  H       79.443    -201.758     492.883

 3  4  5  6  7  8  9  10  11  12  23  26  30  31  33  0
 6-311+G(2d,p)
 ****
 35  36  37  38 0
 6-311+G(2d,p)
 ****
 1  2  13  14  15  16  17  18  19  20  21  22  24  25  27  28  29 0
 3-21G
 ****
 32  34  39  40  41  42  43  44  45  46  47  48  49 0
 3-21G
 ****


