%nproc=1
%NoSave
%Mem=1900MB
#P OB98/GEN NMR

erre ene a

0 1
  C      -67.151    -707.654    -163.074
  O      -68.258    -708.523    -163.345
  P      -69.786    -708.110    -163.094
  C      -69.877    -709.052    -160.691
  O      -70.033    -707.908    -161.523
  C      -70.317    -708.786    -159.251
  O      -71.777    -708.700    -159.183
  C      -69.880    -709.860    -158.239
  O      -69.529    -709.168    -157.032
  C      -71.153    -710.675    -158.066
  O      -71.171    -711.472    -156.895
  C      -72.189    -709.539    -158.088
  N      -73.573    -709.968    -158.254
  C      -74.264    -710.408    -157.114
  O      -73.706    -710.501    -156.023
  N      -75.579    -710.776    -157.248
  C      -76.159    -710.712    -158.403
  N      -77.475    -711.076    -158.459
  C      -75.473    -710.264    -159.633
  C      -74.199    -709.913    -159.482
  O      -70.776    -709.035    -163.728
  O      -69.938    -706.631    -163.699
  H      -70.827    -706.531    -164.090
  H      -70.944    -710.901    -156.138
  H      -75.999    -710.220    -160.574
  H      -73.629    -709.551    -160.332
  H      -72.095    -708.948    -157.172
  H      -71.253    -711.344    -158.925
  H      -69.017    -710.443    -158.571
  H      -69.938    -707.802    -158.951
  H      -77.916    -711.363    -157.596
  H      -68.811    -709.327    -160.689
  H      -78.027    -711.054    -159.304
  H      -70.442    -709.885    -161.125
  P      -68.018    -709.192    -156.515
  C      -68.101    -711.264    -154.934
  O      -67.656    -710.720    -156.152
  O      -68.154    -708.540    -155.054
  O      -67.029    -708.424    -157.326
  H      -67.304    -708.137    -154.794
  H      -68.490    -712.269    -155.131
  H      -68.894    -710.669    -154.470
  H      -67.258    -711.350    -154.248
  H      -66.237    -708.153    -163.322
  H      -67.146    -707.396    -162.036
  H      -67.243    -706.765    -163.662

 3  4  5  6  7  8  9  10  11  12  13  24  27  28  29  30  32 0
 6-311+G(2d,p)
 ****
 34  35 0
 6-311+G(2d,p)
 ****
 1  2  14  15  16  17  18  19  20  21  22  23  25  26 0
 3-21G
 ****
 31  33  36  37  38  39  40  41  42  43  44  45  46 0
 3-21G
 ****


