%nproc=1
%NoSave
%Mem=1900MB
#P OB98/GEN NMR

erre ene a

0 1
  C     -221.765     653.881    -297.172
  O     -220.957     653.352    -296.139
  H     -221.621     654.964    -297.208
  H     -222.821     653.676    -296.979
  H     -221.474     653.456    -298.137
  P     -221.047     651.784    -295.826
  C     -219.542     651.216    -297.852
  O     -220.804     651.031    -297.219
  C     -219.013     649.889    -298.390
  O     -218.552     649.056    -297.307
  C     -220.053     649.060    -299.137
  O     -220.292     649.598    -300.421
  C     -219.386     647.694    -299.114
  O     -218.356     647.605    -300.111
  C     -218.775     647.680    -297.692
  N     -219.605     646.995    -296.706
  C     -219.680     645.603    -296.824
  O     -219.077     645.023    -297.727
  N     -220.449     644.910    -295.922
  C     -221.055     645.540    -294.966
  N     -221.797     644.795    -294.104
  C     -220.974     647.002    -294.787
  C     -220.252     647.662    -295.689
  O     -222.264     651.329    -295.080
  O     -219.705     651.478    -295.010
  H     -217.860     646.787    -299.913
  H     -219.869     651.528    -294.050
  H     -221.487     647.485    -293.968
  H     -220.142     648.739    -295.628
  H     -217.792     647.191    -297.704
  H     -220.092     646.886    -299.312
  H     -220.978     649.002    -298.555
  H     -218.148     650.105    -299.032
  H     -221.806     643.791    -294.255
  H     -218.858     651.615    -297.096
  H     -222.173     645.152    -293.238
  H     -219.621     651.946    -298.664
  P     -221.564     649.158    -301.291
  C     -222.850     651.167    -300.332
  O     -222.842     649.761    -300.530
  O     -221.647     647.703    -301.604
  O     -221.469     650.087    -302.590
  H     -220.779     649.741    -303.212
  H     -223.745     651.450    -299.818
  H     -222.812     651.661    -301.280
  H     -221.999     651.450    -299.748

 6  7  8  9  10  11  12  13  14  15  16  26  30  31  32  33  35 0
 6-311+G(2d,p)
 ****
 37  38 0
 6-311+G(2d,p)
 ****
 1  2  3  4  5  17  18  19  20  21  22  23  24  25 0
 3-21G
 ****
 27  28  29  34  36  39  40  41  42  43  44  45  46 0
 3-21G
 ****


