%nproc=1
%NoSave
%Mem=1900MB
#P OB98/GEN NMR

erre ene a

0 1
  C     -897.010     907.996     403.534
  O     -896.520     908.515     402.318
  H     -896.390     907.136     403.827
  H     -898.050     907.637     403.398
  H     -896.970     908.746     404.322
  P     -897.190     909.878     401.797
  C     -898.120     908.699     399.640
  O     -897.310     909.723     400.206
  C     -898.480     909.049     398.198
  O     -899.320     910.222     398.183
  C     -897.260     909.332     397.293
  O     -897.550     908.844     395.985
  C     -897.200     910.850     397.282
  O     -896.520     911.343     396.125
  C     -898.710     911.212     397.338
  N     -898.950     912.574     397.808
  C     -898.520     913.618     396.978
  O     -897.960     913.378     395.909
  N     -898.700     914.916     397.410
  C     -899.180     915.154     398.596
  N     -899.320     916.453     398.952
  C     -899.600     914.065     399.510
  C     -899.470     912.826     399.065
  O     -896.000     910.928     401.992
  O     -898.460     910.253     402.501
  H     -895.600     911.034     396.145
  H     -895.130     910.601     401.682
  H     -900.000     914.315     400.487
  H     -899.770     911.986     399.669
  H     -899.170     911.124     396.337
  H     -896.690     911.239     398.161
  H     -896.350     908.878     397.673
  H     -899.090     908.231     397.787
  H     -898.980     917.164     398.309
  H     -899.040     908.562     400.231
  H     -899.630     916.748     399.857
  H     -897.550     907.772     399.680
  P     -896.760     907.558     395.460
  C     -896.170     908.608     393.148
  O     -896.830     907.523     393.840
  O     -897.130     906.255     396.118
  O     -895.250     907.885     395.733
  H     -894.790     907.094     396.067
  H     -896.283     908.478     392.092
  H     -895.130     908.610     393.398
  H     -896.609     909.538     393.442

 6  7  8  9  10  11  12  13  14  15  16  26  30  31  32  33  35 0
 6-311+G(2d,p)
 ****
 37  38 0
 6-311+G(2d,p)
 ****
 1  2  3  4  5  17  18  19  20  21  22  23  24  25 0
 3-21G
 ****
 27  28  29  34  36  39  40  41  42  43  44  45  46 0
 3-21G
 ****


