%nproc=1
%NoSave
%Mem=1900MB
#P OB98/GEN NMR

erre ene a

0 1
  C      427.886     325.667     160.442
  O      427.962     326.703     159.455
  P      428.763     326.395     158.103
  C      430.134     328.538     157.564
  O      428.962     327.778     157.316
  C      430.098     329.846     156.767
  O      429.525     329.656     155.456
  C      429.274     330.942     157.427
  O      430.016     331.636     158.422
  C      429.008     331.862     156.247
  O      430.165     332.687     156.002
  C      428.809     330.865     155.099
  N      424.672     332.191     152.510
  C      425.941     332.732     152.496
  N      426.141     333.780     151.665
  N      426.929     332.291     153.232
  C      426.590     331.231     154.002
  C      425.368     330.607     154.104
  C      424.279     331.117     153.296
  O      423.131     330.685     153.278
  N      425.408     329.571     154.997
  C      426.656     329.552     155.422
  N      427.412     330.551     154.859
  O      427.672     325.635     157.210
  O      429.992     325.571     158.291
  H      430.921     332.079     155.887
  H      428.116     325.031     156.584
  H      423.949     332.574     151.928
  H      427.062     328.838     156.128
  H      429.227     331.229     154.152
  H      428.169     332.539     156.425
  H      425.442     334.137     151.034
  H      428.326     330.546     157.817
  H      427.075     334.168     151.615
  H      431.131     330.198     156.645
  H      431.026     327.965     157.296
  H      430.215     328.726     158.641
  P      429.450     331.626     159.920
  C      430.911     333.742     160.280
  O      430.477     332.498     160.788
  O      429.718     330.120     160.395
  O      428.011     331.996     160.047
  H      429.033     329.844     161.030
  H      431.469     334.262     161.064
  H      430.058     334.361     159.990
  H      431.571     333.589     159.424
  H      427.324     326.016     161.283
  H      428.873     325.402     160.758
  H      427.404     324.809     160.022

 3  4  5  6  7  8  9  10  11  12  23  26  30  31 0
 6-311+G(2d,p)
 ****
 33  35  36  37  38 0
 6-311+G(2d,p)
 ****
 1  2  13  14  15  16  17  18  19  20  21  22  24  25 0
 3-21G
 ****
 27  28  29  32  34  39  40  41  42  43  44  45  46  47  48  49 0
 3-21G
 ****


