%nproc=1
%NoSave
%Mem=1900MB
#P OB98/GEN NMR

erre ene a

0 1
  C      194.411    -126.837     231.545
  O      195.145    -126.344     230.444
  P      194.503    -125.264     229.452
  C      196.962    -124.877     228.771
  O      195.614    -125.009     228.321
  C      197.946    -125.267     227.665
  O      197.737    -124.456     226.494
  C      199.406    -125.086     228.043
  O      199.841    -126.140     228.891
  C      200.065    -125.065     226.672
  O      200.283    -126.398     226.175
  C      199.011    -124.331     225.817
  N      199.362    -122.936     225.580
  C      200.424    -122.717     224.692
  O      201.018    -123.671     224.187
  N      200.812    -121.425     224.433
  C      200.210    -120.441     225.030
  N      200.648    -119.185     224.746
  C      199.110    -120.630     225.997
  C      198.744    -121.894     226.226
  O      193.965    -124.031     230.108
  O      193.387    -126.106     228.669
  H      200.735    -126.298     225.314
  H      192.600    -126.279     229.241
  H      198.646    -119.781     226.478
  H      197.948    -122.120     226.921
  H      198.891    -124.826     224.844
  H      201.044    -124.568     226.690
  H      199.549    -124.112     228.531
  H      197.752    -126.314     227.393
  H      201.424    -119.101     224.100
  H      197.103    -125.534     229.628
  H      200.271    -118.351     225.179
  H      197.135    -123.845     229.094
  P      201.268    -126.057     229.602
  C      200.060    -127.163     231.577
  O      201.262    -127.078     230.839
  O      201.748    -124.677     229.921
  O      202.253    -126.766     228.554
  H      203.065    -126.241     228.473
  H      200.062    -128.096     232.148
  H      199.189    -127.156     230.914
  H      199.996    -126.326     232.267
  H      195.007    -127.544     232.083
  H      193.520    -127.315     231.195
  H      194.149    -126.025     232.191

 3  4  5  6  7  8  9  10  11  12  13  23  27  28  29  30  32 0
 6-311+G(2d,p)
 ****
 34  35 0
 6-311+G(2d,p)
 ****
 1  2  14  15  16  17  18  19  20  21  22  24  25  26 0
 3-21G
 ****
 31  33  36  37  38  39  40  41  42  43  44  45  46 0
 3-21G
 ****


