%nproc=1
%NoSave
%Mem=1900MB
#P OB98/GEN NMR

erre ene a

0 1
  C     -658.470     912.060    -333.336
  O     -659.749     911.805    -333.887
  H     -658.595     912.719    -332.476
  H     -657.827     912.548    -334.072
  H     -658.019     911.122    -333.009
  P     -659.790     910.879    -335.202
  C     -660.248     908.710    -333.864
  O     -659.331     909.423    -334.687
  C     -660.968     907.624    -334.680
  O     -660.031     906.694    -335.211
  C     -661.994     906.824    -333.892
  O     -663.219     907.510    -333.812
  C     -662.094     905.577    -334.752
  O     -662.983     905.835    -335.861
  C     -660.658     905.383    -335.264
  N     -656.137     902.981    -335.020
  C     -656.689     903.743    -335.989
  N     -657.928     904.300    -336.008
  C     -658.596     904.028    -334.880
  C     -658.161     903.250    -333.815
  C     -656.865     902.718    -333.898
  N     -656.284     901.935    -332.917
  N     -659.118     903.176    -332.828
  C     -660.100     903.940    -333.270
  N     -659.847     904.438    -334.527
  O     -659.077     911.410    -336.393
  O     -661.379     910.696    -335.395
  H     -662.824     905.133    -336.527
  H     -661.810     910.561    -334.526
  H     -656.075     903.926    -336.860
  H     -661.015     904.165    -332.716
  H     -660.637     905.070    -336.317
  H     -662.503     904.714    -334.224
  H     -661.607     906.548    -332.901
  H     -661.440     908.137    -335.540
  H     -660.974     909.389    -333.416
  H     -655.445     901.440    -333.146
  H     -656.873     901.646    -332.155
  H     -659.669     908.247    -333.046
  P     -663.871     907.917    -332.402
  C     -664.072     910.460    -332.760
  O     -663.343     909.407    -332.123
  O     -663.632     906.935    -331.312
  O     -665.423     908.133    -332.723
  H     -665.945     908.116    -331.898
  H     -663.634     911.402    -332.505
  H     -665.090     910.439    -332.431
  H     -664.038     910.326    -333.821

 6  7  8  9  10  11  12  13  14  15  25  28  32  33  34  35 0
 6-311+G(2d,p)
 ****
 36  39  40 0
 6-311+G(2d,p)
 ****
 1  2  3  4  5  16  17  18  19  20  21  22  23  24 0
 3-21G
 ****
 26  27  29  30  31  37  38  41  42  43  44  45  46  47 0
 3-21G
 ****
 48 0
 3-21G
 ****


