%nproc=1
%NoSave
%Mem=1900MB
#P OB98/GEN NMR

erre ene a

0 1
  C      155.053     754.215     811.238
  O      153.644     754.148     811.313
  H      155.400     753.449     810.539
  H      155.490     754.015     812.220
  H      155.379     755.195     810.882
  P      152.859     755.270     812.148
  C      150.615     756.516     811.882
  O      151.627     755.745     811.238
  C      149.689     757.143     810.834
  O      150.428     758.119     810.057
  C      149.144     756.146     809.832
  O      148.101     755.357     810.400
  C      148.699     757.088     808.716
  O      147.414     757.657     808.996
  C      149.807     758.161     808.754
  N      150.791     757.976     807.683
  C      150.404     758.367     806.419
  O      149.308     758.855     806.152
  N      151.309     758.111     805.407
  C      152.460     757.399     805.542
  O      153.111     756.992     804.594
  C      152.857     757.064     806.922
  C      152.005     757.354     807.917
  O      153.702     756.367     812.705
  O      152.137     754.439     813.314
  H      152.641     754.549     814.142
  H      147.254     758.305     808.287
  H      151.017     758.357     804.477
  H      153.806     756.561     807.083
  H      152.257     757.090     808.943
  H      149.366     759.171     808.653
  H      148.632     756.554     807.760
  H      149.946     755.499     809.459
  H      148.884     757.678     811.369
  H      151.102     757.313     812.469
  H      150.057     755.874     812.571
  P      147.314     754.294     809.497
  C      145.851     752.203     809.844
  O      146.666     753.189     810.471
  O      148.104     753.741     808.347
  O      146.027     755.092     808.972
  H      145.961     754.987     808.011
  H      145.477     751.526     810.584
  H      146.433     751.662     809.128
  H      145.031     752.680     809.350

 6  7  8  9  10  11  12  13  14  15  16  27  31  32  33  34  35 0
 6-311+G(2d,p)
 ****
 36  37 0
 6-311+G(2d,p)
 ****
 1  2  3  4  5  17  18  19  20  21  22  23  24  25 0
 3-21G
 ****
 26  28  29  30  38  39  40  41  42  43  44  45 0
 3-21G
 ****


