%nproc=1
%NoSave
%Mem=1900MB
#P OB98/GEN NMR

erre ene a

0 1
  C      248.326     -48.138     -68.850
  O      249.178     -47.016     -68.810
  H      248.749     -48.921     -68.217
  H      248.260     -48.512     -69.875
  H      247.325     -47.894     -68.484
  P      248.600     -45.594     -69.257
  C      250.639     -44.247     -68.426
  O      249.842     -44.617     -69.544
  C      252.129     -44.261     -68.764
  O      252.556     -45.615     -69.024
  C      252.454     -43.447     -70.020
  O      252.684     -42.069     -69.784
  C      253.719     -44.136     -70.524
  O      254.896     -43.567     -69.927
  C      253.537     -45.589     -70.071
  N      254.701     -49.608     -73.008
  C      255.505     -48.927     -72.113
  N      256.783     -49.353     -72.024
  N      255.087     -47.917     -71.395
  C      253.816     -47.546     -71.666
  C      252.931     -48.130     -72.545
  C      253.378     -49.294     -73.282
  O      252.701     -49.941     -74.072
  N      251.737     -47.451     -72.585
  C      251.935     -46.411     -71.799
  N      253.150     -46.470     -71.158
  O      247.997     -44.993     -67.897
  O      247.552     -45.631     -70.328
  H      254.865     -43.745     -68.967
  H      247.232     -44.424     -68.102
  H      255.069     -50.395     -73.511
  H      251.219     -45.617     -71.623
  H      254.465     -45.995     -69.649
  H      253.825     -44.014     -71.605
  H      257.179     -50.066     -72.613
  H      251.674     -43.574     -70.776
  H      257.453     -48.764     -71.524
  H      252.701     -43.905     -67.897
  H      250.428     -44.974     -67.641
  H      250.340     -43.263     -68.053
  P      252.734     -41.027     -70.995
  C      251.835     -38.947     -69.668
  O      252.882     -39.558     -70.390
  O      251.234     -41.049     -71.552
  O      253.733     -41.330     -72.062
  H      251.167     -41.625     -72.336
  H      252.141     -37.971     -69.354
  H      251.600     -39.541     -68.809
  H      250.970     -38.866     -70.293

 6  7  8  9  10  11  12  13  14  15  26  29  33  34 0
 6-311+G(2d,p)
 ****
 36  38  39  40  41 0
 6-311+G(2d,p)
 ****
 1  2  3  4  5  16  17  18  19  20  21  22  23  24  25 0
 3-21G
 ****
 27  28  30  31  32  35  37  42  43  44  45  46  47 0
 3-21G
 ****
 48  49 0
 3-21G
 ****


