%nproc=1
%NoSave
%Mem=1900MB
#P OB98/GEN NMR

erre ene a

0 1
  C      450.610    -274.868    -532.902
  O      450.749    -273.604    -533.528
  H      450.628    -274.723    -531.820
  H      451.447    -275.515    -533.184
  H      449.662    -275.331    -533.186
  P      450.566    -273.571    -535.125
  C      452.364    -275.275    -536.012
  O      451.014    -275.022    -535.640
  C      452.714    -276.744    -535.789
  O      451.880    -277.563    -536.659
  C      454.174    -277.085    -536.086
  O      454.618    -278.064    -535.140
  C      454.128    -277.695    -537.477
  O      455.248    -278.547    -537.730
  C      452.754    -278.390    -537.460
  N      452.219    -278.579    -538.805
  C      452.927    -279.452    -539.645
  O      453.969    -279.984    -539.256
  N      452.473    -279.648    -540.928
  C      451.443    -278.994    -541.357
  N      451.053    -279.219    -542.635
  C      450.688    -278.028    -540.521
  C      451.124    -277.883    -539.268
  O      451.777    -272.620    -535.567
  O      449.216    -273.116    -535.583
  H      455.255    -278.758    -538.691
  H      452.600    -272.790    -535.085
  H      449.846    -277.493    -540.927
  H      450.626    -277.200    -538.583
  H      452.827    -279.367    -536.971
  H      454.138    -276.897    -538.228
  H      454.831    -276.221    -536.052
  H      452.445    -277.017    -534.761
  H      451.602    -279.878    -543.188
  H      453.042    -274.647    -535.427
  H      450.295    -278.723    -543.091
  H      452.473    -275.012    -537.066
  P      455.233    -277.577    -533.743
  C      457.758    -277.398    -534.227
  O      456.543    -276.691    -534.020
  O      455.402    -278.639    -532.710
  O      454.171    -276.476    -533.250
  H      454.071    -276.565    -532.278
  H      458.551    -276.701    -534.400
  H      457.656    -278.041    -535.076
  H      457.981    -277.985    -533.361

 6  7  8  9  10  11  12  13  14  15  16  26  30  31  32  33  35 0
 6-311+G(2d,p)
 ****
 37  38 0
 6-311+G(2d,p)
 ****
 1  2  3  4  5  17  18  19  20  21  22  23  24  25 0
 3-21G
 ****
 27  28  29  34  36  39  40  41  42  43  44  45  46 0
 3-21G
 ****


