%nproc=1
%NoSave
%Mem=1900MB
#P OB98/GEN NMR

erre ene a

0 1
  C     -105.971     -43.527      52.203
  O     -106.743     -44.717      52.390
  P     -107.261     -45.455      51.065
  C     -105.643     -47.441      50.637
  O     -106.885     -47.009      51.178
  C     -105.761     -48.880      50.135
  O     -104.667     -49.232      49.261
  C     -105.730     -49.915      51.253
  O     -106.962     -49.947      51.953
  C     -105.416     -51.180      50.462
  O     -106.603     -51.685      49.828
  C     -104.442     -50.657      49.394
  N     -100.873     -54.248      50.127
  C     -102.183     -54.329      49.809
  N     -103.067     -53.324      49.634
  C     -102.473     -52.133      49.809
  C     -101.148     -51.894      50.131
  C     -100.327     -53.021      50.297
  N      -98.995     -52.939      50.636
  N     -100.908     -50.538      50.229
  C     -102.074     -49.972      49.994
  N     -103.048     -50.894      49.723
  O     -106.279     -44.907      49.928
  O     -108.691     -45.171      50.742
  H     -107.227     -51.937      50.538
  H     -106.757     -44.292      49.341
  H     -102.575     -55.334      49.678
  H     -102.261     -48.905      50.009
  H     -104.622     -51.109      48.412
  H     -105.009     -51.984      51.083
  H     -104.911     -49.695      51.949
  H     -106.700     -48.969      49.573
  H     -104.858     -47.377      51.394
  H      -98.497     -53.797      50.813
  H      -98.600     -52.035      50.851
  H     -105.357     -46.762      49.828
  P     -106.941     -49.600      53.518
  C     -107.512     -47.106      53.745
  O     -108.027     -48.423      53.660
  O     -105.556     -48.818      53.656
  O     -107.128     -50.767      54.425
  H     -105.438     -48.161      52.946
  H     -108.351     -46.408      53.803
  H     -106.916     -46.875      52.859
  H     -106.902     -47.001      54.646
  H     -105.687     -43.132      53.156
  H     -106.555     -42.802      51.676
  H     -105.093     -43.757      51.637

 3  4  5  6  7  8  9  10  11  12  22  25  29  30  31  32 0
 6-311+G(2d,p)
 ****
 33  36  37 0
 6-311+G(2d,p)
 ****
 1  2  13  14  15  16  17  18  19  20  21  23  24  26 0
 3-21G
 ****
 27  28  34  35  38  39  40  41  42  43  44  45  46  47  48 0
 3-21G
 ****


