%nproc=1
%NoSave
%Mem=1900MB
#P OB98/GEN NMR

erre ene a

0 1
  C     -188.354     -35.667      19.585
  O     -188.818     -34.394      19.996
  H     -187.601     -36.014      20.298
  H     -187.896     -35.593      18.595
  H     -189.178     -36.385      19.562
  P     -190.091     -33.815      19.217
  C     -192.585     -34.595      18.984
  O     -191.236     -34.943      19.267
  C     -193.290     -35.751      18.283
  O     -192.591     -36.121      17.077
  C     -193.327     -37.040      19.086
  O     -194.233     -36.982      20.166
  C     -193.732     -38.035      18.007
  O     -195.153     -38.066      17.822
  C     -193.028     -37.462      16.752
  N     -191.935     -38.310      16.314
  C     -192.311     -39.418      15.541
  O     -193.496     -39.604      15.262
  N     -191.339     -40.298      15.140
  C     -190.108     -40.109      15.502
  N     -189.200     -41.037      15.099
  C     -189.671     -38.957      16.317
  C     -190.629     -38.105      16.686
  O     -189.608     -33.853      17.693
  O     -190.551     -32.474      19.679
  H     -195.321     -38.690      17.086
  H     -189.220     -34.702      17.425
  H     -188.631     -38.837      16.580
  H     -190.398     -37.232      17.286
  H     -193.741     -37.366      15.923
  H     -193.422     -39.052      18.260
  H     -192.316     -37.301      19.428
  H     -194.302     -35.421      18.012
  H     -189.552     -41.839      14.589
  H     -192.626     -33.692      18.365
  H     -188.232     -41.036      15.384
  H     -193.077     -34.367      19.935
  P     -194.127     -37.999      21.398
  C     -192.266     -38.587      23.080
  O     -192.566     -38.108      21.773
  O     -194.805     -39.313      21.203
  O     -194.704     -37.144      22.623
  H     -194.219     -36.322      22.814
  H     -191.205     -38.616      23.214
  H     -192.668     -39.571      23.200
  H     -192.700     -37.933      23.808

 6  7  8  9  10  11  12  13  14  15  16  26  30  31  32  33  35 0
 6-311+G(2d,p)
 ****
 37  38 0
 6-311+G(2d,p)
 ****
 1  2  3  4  5  17  18  19  20  21  22  23  24  25 0
 3-21G
 ****
 27  28  29  34  36  39  40  41  42  43  44  45  46 0
 3-21G
 ****


