%nproc=1
%NoSave
%Mem=1900MB
#P OB98/GEN NMR

erre ene a

0 1
  C      509.393    -889.400     992.758
  O      508.372    -890.300     992.370
  P      507.862    -890.240     990.837
  C      509.330    -892.380     990.467
  O      508.941    -891.110     989.995
  C      508.817    -893.460     989.516
  O      509.324    -893.260     988.182
  C      509.184    -894.880     989.916
  O      508.321    -895.400     990.908
  C      509.068    -895.610     988.602
  O      507.703    -895.960     988.300
  C      509.602    -894.570     987.610
  N      513.234    -897.710     986.005
  C      511.916    -897.990     986.376
  N      511.515    -899.280     986.249
  N      511.079    -897.050     986.800
  C      511.665    -895.850     986.896
  C      512.952    -895.450     986.590
  C      513.835    -896.440     986.044
  O      514.947    -896.240     985.621
  N      513.115    -894.090     986.790
  C      511.952    -893.680     987.244
  N      511.001    -894.690     987.290
  O      508.189    -888.720     990.422
  O      506.444    -890.620     990.607
  H      507.616    -896.140     987.351
  H      507.395    -888.170     990.484
  H      513.840    -898.420     985.653
  H      511.717    -892.670     987.514
  H      509.057    -894.610     986.640
  H      509.634    -896.570     988.589
  H      512.125    -900.000     985.952
  H      510.237    -894.900     990.257
  H      510.558    -899.460     986.513
  H      507.721    -893.370     989.466
  H      508.894    -892.540     991.472
  H      510.404    -892.420     990.535
  P      508.920    -896.390     992.018
  C      508.133    -895.000     994.092
  O      509.234    -895.530     993.338
  O      510.379    -896.720     991.426
  O      508.129    -897.620     992.248
  H      510.601    -897.660     991.648
  H      508.450    -894.930     995.136
  H      507.250    -895.650     993.999
  H      507.896    -894.000     993.718
  H      509.628    -889.551     993.791
  H      509.057    -888.395     992.613
  H      510.266    -889.573     992.164

 3  4  5  6  7  8  9  10  11  12  23  26  30  31 0
 6-311+G(2d,p)
 ****
 33  35  36  37  38 0
 6-311+G(2d,p)
 ****
 1  2  13  14  15  16  17  18  19  20  21  22  24  25 0
 3-21G
 ****
 27  28  29  32  34  39  40  41  42  43  44  45  46  47  48  49 0
 3-21G
 ****


