%nproc=1
%NoSave
%Mem=1900MB
#P OB98/GEN NMR

erre ene a

0 1
  C      381.918    -198.460      38.130
  O      381.796    -198.121      36.762
  H      381.459    -197.672      38.731
  H      382.973    -198.538      38.399
  H      381.408    -199.407      38.338
  P      382.189    -199.242      35.689
  C      380.025    -200.680      35.498
  O      381.329    -200.551      36.054
  C      380.048    -201.687      34.349
  O      380.495    -202.973      34.869
  C      378.680    -201.908      33.685
  O      378.883    -202.116      32.280
  C      378.196    -203.205      34.320
  O      377.231    -203.897      33.540
  C      379.517    -203.959      34.465
  N      379.438    -205.049      35.438
  C      379.554    -206.350      34.955
  O      379.798    -206.644      33.790
  N      379.368    -207.341      35.883
  C      379.064    -207.169      37.203
  O      378.890    -208.102      37.980
  C      378.949    -205.769      37.650
  C      379.133    -204.790      36.765
  O      383.677    -199.647      36.117
  O      382.099    -198.824      34.259
  H      384.328    -199.085      35.659
  H      376.978    -204.705      34.034
  H      379.447    -208.284      35.549
  H      378.700    -205.593      38.691
  H      379.033    -203.754      37.052
  H      379.838    -204.362      33.499
  H      377.754    -202.997      35.294
  H      377.968    -201.086      33.838
  H      380.793    -201.367      33.610
  H      379.702    -199.707      35.114
  H      379.329    -201.004      36.280
  P      378.475    -200.923      31.292
  C      380.735    -199.639      31.621
  O      379.323    -199.652      31.776
  O      376.982    -200.615      31.777
  O      378.610    -201.287      29.853
  H      376.868    -200.726      32.734
  H      381.127    -198.717      31.997
  H      380.981    -199.734      30.584
  H      381.161    -200.456      32.165

 6  7  8  9  10  11  12  13  14  15  16  27  31  32  33  34  35 0
 6-311+G(2d,p)
 ****
 36  37 0
 6-311+G(2d,p)
 ****
 1  2  3  4  5  17  18  19  20  21  22  23  24  25 0
 3-21G
 ****
 26  28  29  30  38  39  40  41  42  43  44  45 0
 3-21G
 ****


