%nproc=1
%NoSave
%Mem=1900MB
#P OB98/GEN NMR

erre ene a

0 1
  C       15.254    -270.842      81.516
  O       16.127    -270.398      82.539
  H       14.616    -271.634      81.921
  H       15.828    -271.253      80.681
  H       14.616    -270.024      81.168
  P       17.107    -269.166      82.236
  C       19.634    -268.845      81.874
  O       18.578    -269.782      82.045
  C       20.945    -269.408      82.423
  O       20.858    -269.467      83.873
  C       21.274    -270.817      81.912
  O       22.684    -270.910      81.708
  C       20.866    -271.713      83.068
  O       21.593    -272.941      83.084
  C       21.151    -270.819      84.275
  N       21.289    -271.771      89.240
  C       22.282    -271.325      88.390
  N       23.506    -271.124      88.932
  N       22.097    -271.096      87.115
  C       20.822    -271.327      86.709
  C       19.754    -271.768      87.451
  C       19.977    -272.031      88.858
  O       19.139    -272.435      89.656
  N       18.628    -271.902      86.671
  C       19.020    -271.545      85.461
  N       20.347    -271.197      85.428
  O       17.034    -268.034      83.213
  O       16.706    -268.703      80.759
  H       21.514    -273.336      82.189
  H       16.128    -267.919      80.788
  H       21.491    -271.938      90.213
  H       18.393    -271.527      84.577
  H       22.201    -270.869      84.592
  H       19.797    -271.947      82.995
  H       23.719    -271.262      89.908
  H       20.744    -271.070      80.986
  H       24.245    -270.774      88.332
  H       21.753    -268.705      82.181
  H       19.370    -267.927      82.414
  H       19.741    -268.610      80.808
  P       23.259    -270.772      80.216
  C       23.266    -272.199      78.069
  O       23.095    -272.191      79.482
  O       24.609    -270.145      80.100
  O       22.142    -269.879      79.486
  H       22.569    -269.350      78.783
  H       23.133    -273.194      77.699
  H       24.251    -271.857      77.827
  H       22.543    -271.552      77.619

 6  7  8  9  10  11  12  13  14  15  26  29  33  34 0
 6-311+G(2d,p)
 ****
 36  38  39  40  41 0
 6-311+G(2d,p)
 ****
 1  2  3  4  5  16  17  18  19  20  21  22  23  24  25 0
 3-21G
 ****
 27  28  30  31  32  35  37  42  43  44  45  46  47 0
 3-21G
 ****
 48  49 0
 3-21G
 ****


