%nproc=1
%NoSave
%Mem=1900MB
#P OB98/GEN NMR

erre ene a

0 1
  C     -155.900     252.359     112.918
  O     -156.116     253.086     114.110
  H     -155.614     251.335     113.177
  H     -155.086     252.812     112.345
  H     -156.809     252.324     112.310
  P     -156.722     254.567     114.015
  C     -158.530     255.424     115.653
  O     -157.190     254.974     115.493
  C     -158.932     255.402     117.136
  O     -159.065     254.008     117.563
  C     -157.910     256.074     118.082
  O     -158.657     256.609     119.191
  C     -157.076     254.877     118.501
  O     -156.226     255.161     119.579
  C     -158.196     253.853     118.716
  N     -157.764     252.463     118.841
  C     -157.368     252.027     120.104
  O     -157.360     252.721     121.121
  N     -156.956     250.718     120.174
  C     -156.924     249.827     119.139
  O     -156.575     248.654     119.272
  C     -157.348     250.351     117.833
  C     -157.744     251.623     117.749
  O     -157.746     254.784     112.948
  O     -155.430     255.490     113.787
  H     -155.368     255.737     112.845
  H     -155.457     255.680     119.257
  H     -156.671     250.380     121.079
  H     -157.319     249.675     116.984
  H     -158.073     252.036     116.796
  H     -158.785     254.126     119.598
  H     -156.424     254.572     117.674
  H     -157.344     256.880     117.601
  H     -159.928     255.862     117.237
  H     -159.184     254.751     115.086
  H     -158.620     256.434     115.257
  P     -159.354     258.053     119.173
  C     -161.746     258.842     119.776
  O     -160.653     257.991     120.114
  O     -159.636     258.579     117.798
  O     -158.354     259.020     119.967
  H     -158.470     259.936     119.656
  H     -162.539     258.701     120.480
  H     -162.094     258.602     118.793
  H     -161.425     259.862     119.801

 6  7  8  9  10  11  12  13  14  15  16  27  31  32  33  34  35 0
 6-311+G(2d,p)
 ****
 36  37 0
 6-311+G(2d,p)
 ****
 1  2  3  4  5  17  18  19  20  21  22  23  24  25 0
 3-21G
 ****
 26  28  29  30  38  39  40  41  42  43  44  45 0
 3-21G
 ****


