%nproc=1
%NoSave
%Mem=1900MB
#P OB98/GEN NMR

erre ene a

0 1
  C       39.036     -59.466     374.919
  O       39.089     -60.821     374.467
  P       37.698     -61.500     374.040
  C       38.202     -61.298     371.501
  O       37.871     -62.158     372.584
  C       38.603     -62.089     370.250
  O       39.770     -62.912     370.508
  C       37.502     -62.999     369.725
  O       37.617     -63.044     368.295
  C       37.891     -64.363     370.283
  O       37.285     -65.419     369.538
  C       39.426     -64.279     370.181
  N       40.110     -65.238     371.050
  C       41.008     -66.115     370.442
  O       41.147     -66.112     369.213
  N       41.696     -67.009     371.232
  C       41.467     -67.052     372.502
  N       42.179     -67.960     373.235
  C       40.482     -66.185     373.177
  C       39.851     -65.310     372.397
  O       36.739     -60.240     373.776
  O       37.128     -62.409     375.082
  H       36.313     -65.278     369.552
  H       35.897     -60.361     374.251
  H       40.308     -66.271     374.240
  H       39.112     -64.625     372.803
  H       39.755     -64.464     369.153
  H       37.573     -64.448     371.326
  H       36.491     -62.684     370.002
  H       38.889     -61.364     369.470
  H       42.850     -68.536     372.738
  H       39.020     -60.634     371.788
  H       42.078     -68.079     374.226
  H       37.342     -60.643     371.294
  P       36.639     -62.122     367.423
  C       37.680     -59.788     367.159
  O       37.617     -61.111     366.648
  O       36.012     -61.164     368.551
  O       35.572     -62.787     366.611
  H       35.336     -60.594     368.150
  H       38.467     -59.244     366.622
  H       37.924     -59.801     368.228
  H       36.735     -59.277     366.999
  H       40.022     -59.135     375.171
  H       38.407     -59.402     375.782
  H       38.639     -58.846     374.142

 3  4  5  6  7  8  9  10  11  12  13  21  23  27  28  29  30  32 0
 6-311+G(2d,p)
 ****
 34  35 0
 6-311+G(2d,p)
 ****
 1  2  14  15  16  17  18  19  20  22  24  25  26 0
 3-21G
 ****
 31  33  36  37  38  39  40  41  42  43  44  45  46 0
 3-21G
 ****


