%nproc=1
%NoSave
%Mem=1900MB
#P OB98/GEN NMR

erre ene a

0 1
  C     -680.897    -125.866     244.315
  O     -680.655    -126.334     243.005
  P     -679.780    -127.648     242.747
  C     -677.457    -126.425     242.625
  O     -678.289    -127.364     243.260
  C     -676.165    -126.274     243.438
  O     -676.462    -125.831     244.770
  C     -675.407    -127.597     243.535
  O     -674.417    -127.686     242.515
  C     -674.831    -127.549     244.939
  O     -673.622    -126.760     244.961
  C     -675.961    -126.825     245.712
  N     -677.099    -127.624     246.190
  C     -678.025    -127.051     247.058
  O     -677.979    -125.887     247.444
  N     -679.013    -127.896     247.508
  C     -679.187    -129.196     247.130
  O     -679.920    -129.993     247.715
  C     -678.351    -129.650     246.014
  C     -677.344    -128.867     245.620
  O     -679.619    -127.678     241.158
  O     -680.355    -128.915     243.283
  H     -673.322    -126.724     245.886
  H     -680.262    -128.296     240.763
  H     -679.610    -127.523     248.242
  H     -678.540    -130.626     245.597
  H     -676.688    -129.204     244.823
  H     -675.553    -126.282     246.576
  H     -674.549    -128.544     245.288
  H     -676.108    -128.443     243.474
  H     -675.526    -125.512     242.957
  H     -677.965    -125.458     242.539
  H     -677.228    -126.753     241.607
  P     -674.439    -128.923     241.502
  C     -672.510    -129.983     242.812
  O     -673.822    -130.157     242.323
  O     -673.828    -128.672     240.162
  O     -676.007    -129.273     241.381
  H     -676.377    -128.863     240.576
  H     -672.274    -130.805     243.486
  H     -672.419    -129.041     243.343
  H     -671.802    -130.010     241.970
  H     -681.498    -124.982     244.273
  H     -679.966    -125.641     244.791
  H     -681.411    -126.620     244.874

 3  4  5  6  7  8  9  10  11  12  13  23  28  29  30  31  32 0
 6-311+G(2d,p)
 ****
 33  34 0
 6-311+G(2d,p)
 ****
 1  2  14  15  16  17  18  19  20  21  22  24  25  26  27 0
 3-21G
 ****
 35  36  37  38  39  40  41  42  43  44  45 0
 3-21G
 ****


