%nproc=1
%NoSave
%Mem=1900MB
#P OB98/GEN NMR

erre ene a

0 1
  C      -90.177      78.235      58.010
  O      -90.688      78.420      56.702
  H      -89.823      77.204      58.107
  H      -90.955      78.404      58.760
  H      -89.340      78.914      58.189
  P      -91.412      79.809      56.362
  C      -93.450      81.071      57.336
  O      -92.721      79.849      57.282
  C      -94.682      80.909      58.221
  O      -95.615      79.992      57.614
  C      -94.364      80.329      59.592
  O      -93.781      81.307      60.430
  C      -95.731      79.833      60.017
  O      -96.545      80.904      60.513
  C      -96.291      79.288      58.682
  N      -96.124      77.845      58.548
  C      -97.288      77.078      58.672
  O      -98.373      77.620      58.876
  N      -97.181      75.712      58.582
  C      -96.027      75.162      58.370
  N      -95.992      73.804      58.293
  C      -94.780      75.935      58.220
  C      -94.899      77.258      58.322
  O      -91.665      80.102      54.914
  O      -90.460      80.905      57.038
  H      -96.082      81.246      61.304
  H      -89.774      81.196      56.408
  H      -93.840      75.435      58.039
  H      -94.031      77.901      58.222
  H      -97.360      79.522      58.588
  H      -95.658      79.081      60.802
  H      -93.704      79.461      59.492
  H      -95.177      81.884      58.308
  H      -96.871      73.313      58.413
  H      -93.749      81.315      56.311
  H      -95.170      73.275      58.045
  H      -92.817      81.882      57.714
  P      -92.563      80.926      61.402
  C      -92.236      79.277      63.359
  O      -93.146      79.808      62.398
  O      -91.889      82.083      62.061
  O      -91.590      80.081      60.450
  H      -91.110      80.667      59.814
  H      -92.737      78.547      63.960
  H      -91.876      80.067      63.984
  H      -91.412      78.818      62.854

 6  7  8  9  10  11  12  13  14  15  16  26  30  31  32  33  35 0
 6-311+G(2d,p)
 ****
 37  38 0
 6-311+G(2d,p)
 ****
 1  2  3  4  5  17  18  19  20  21  22  23  24  25 0
 3-21G
 ****
 27  28  29  34  36  39  40  41  42  43  44  45  46 0
 3-21G
 ****


