%nproc=1
%NoSave
%Mem=1900MB
#P OB98/GEN NMR

erre ene a

0 1
  C       18.978      21.940      28.036
  O       19.674      20.774      27.648
  H       19.708      22.699      28.329
  H       18.331      21.731      28.891
  H       18.385      22.329      27.204
  P       18.824      19.498      27.173
  C       18.614      20.009      24.642
  O       19.284      19.268      25.648
  C       19.625      20.734      23.759
  O       20.194      21.873      24.441
  C       20.830      19.898      23.344
  O       20.538      18.923      22.359
  C       21.741      20.993      22.822
  O       21.288      21.422      21.526
  C       21.521      22.093      23.886
  N       22.530      22.063      24.943
  C       23.708      22.782      24.706
  O       23.870      23.392      23.651
  N       24.697      22.766      25.660
  C       24.535      22.073      26.744
  N       25.550      22.087      27.652
  C       23.320      21.286      27.026
  C       22.368      21.327      26.096
  O       17.349      19.575      27.393
  O       19.517      18.258      27.908
  H       20.375      21.743      21.637
  H       19.021      17.442      27.655
  H       23.246      20.702      27.931
  H       21.448      20.768      26.228
  H       21.520      23.088      23.425
  H       22.780      20.675      22.712
  H       21.307      19.438      24.218
  H       19.083      21.120      22.886
  H       26.370      22.635      27.431
  H       17.940      20.719      25.131
  H       25.541      21.517      28.487
  H       18.025      19.337      24.010
  P       21.760      18.007      21.856
  C       21.441      16.386      23.878
  O       21.512      16.550      22.471
  O       23.002      18.576      22.684
  O       21.998      18.019      20.379
  H       23.526      19.195      22.140
  H       21.272      15.355      24.109
  H       20.636      16.975      24.266
  H       22.361      16.705      24.321

 6  7  8  9  10  11  12  13  14  15  16  26  30  31  32  33  35 0
 6-311+G(2d,p)
 ****
 37  38 0
 6-311+G(2d,p)
 ****
 1  2  3  4  5  17  18  19  20  21  22  23  24  25 0
 3-21G
 ****
 27  28  29  34  36  39  40  41  42  43  44  45  46 0
 3-21G
 ****


