%nproc=1
%NoSave
%Mem=1900MB
#P OB98/GEN NMR

erre ene a

0 1
  C      113.457      -6.299     175.348
  O      114.298      -5.258     175.799
  H      112.623      -6.403     176.046
  H      114.013      -7.240     175.321
  H      113.063      -6.070     174.356
  P      115.546      -4.876     174.864
  C      114.527      -2.730     173.821
  O      115.509      -3.278     174.689
  C      114.110      -1.337     174.287
  O      113.256      -1.469     175.463
  C      115.283      -0.421     174.672
  O      114.939       0.919     174.304
  C      115.293      -0.507     176.192
  O      115.950       0.604     176.798
  C      113.792      -0.586     176.468
  N      112.012       0.805     180.964
  C      112.124       1.514     179.784
  N      111.694       2.794     179.801
  N      112.612       1.015     178.680
  C      112.972      -0.289     178.797
  C      112.917      -1.099     179.906
  C      112.399      -0.522     181.130
  O      112.293      -1.095     182.209
  N      113.404      -2.350     179.624
  C      113.750      -2.299     178.350
  N      113.505      -1.065     177.805
  O      115.088      -5.423     173.430
  O      116.859      -5.443     175.286
  H      115.705       0.617     177.746
  H      115.427      -6.326     173.291
  H      111.639       1.242     181.789
  H      114.179      -3.112     177.782
  H      113.298       0.389     176.367
  H      115.801      -1.424     176.516
  H      111.264       3.234     180.600
  H      116.240      -0.699     174.220
  H      111.728       3.318     178.934
  H      113.497      -0.877     173.504
  H      113.648      -3.386     173.819
  H      114.933      -2.678     172.804
  P      115.956       1.726     173.367
  C      114.100       2.069     171.577
  O      115.098       2.665     172.392
  O      116.504       0.594     172.375
  O      117.068       2.400     174.102
  H      117.400       0.826     172.069
  H      113.621       2.824     170.989
  H      113.374       1.587     172.198
  H      114.552       1.347     170.930

 6  7  8  9  10  11  12  13  14  15  26  29  33  34 0
 6-311+G(2d,p)
 ****
 36  38  39  40  41 0
 6-311+G(2d,p)
 ****
 1  2  3  4  5  16  17  18  19  20  21  22  23  24  25 0
 3-21G
 ****
 27  28  30  31  32  35  37  42  43  44  45  46  47 0
 3-21G
 ****
 48  49 0
 3-21G
 ****


