%nproc=1
%NoSave
%Mem=1900MB
#P OB98/GEN NMR

erre ene a

0 1
  C      -83.457    -249.131    -159.621
  O      -83.604    -250.142    -158.643
  H      -84.231    -248.376    -159.465
  H      -83.573    -249.558    -160.621
  H      -82.476    -248.656    -159.531
  P      -82.528    -251.331    -158.677
  C      -80.719    -250.543    -156.972
  O      -81.856    -251.359    -157.220
  C      -80.380    -250.550    -155.476
  O      -81.448    -249.867    -154.754
  C      -80.265    -251.962    -154.877
  O      -79.322    -251.921    -153.792
  C      -81.661    -252.176    -154.317
  O      -81.668    -253.243    -153.399
  C      -81.927    -250.786    -153.750
  N      -85.198    -248.756    -150.404
  C      -83.848    -248.763    -150.454
  N      -83.046    -249.319    -151.389
  C      -83.781    -249.894    -152.357
  C      -85.161    -249.970    -152.439
  C      -85.884    -249.371    -151.395
  N      -87.259    -249.381    -151.325
  N      -85.542    -250.668    -153.573
  C      -84.412    -250.998    -154.165
  N      -83.324    -250.550    -153.465
  O      -81.371    -250.750    -159.619
  O      -83.035    -252.647    -159.161
  H      -81.058    -253.069    -152.653
  H      -81.523    -251.026    -160.543
  H      -83.340    -248.255    -149.639
  H      -84.320    -251.564    -155.082
  H      -81.366    -250.598    -152.826
  H      -82.371    -252.422    -155.113
  H      -79.956    -252.717    -155.603
  H      -79.464    -249.969    -155.311
  H      -80.941    -249.525    -157.300
  H      -79.866    -250.929    -157.538
  H      -87.698    -248.951    -150.526
  H      -87.786    -249.863    -152.037
  P      -77.980    -252.800    -153.888
  C      -76.418    -251.146    -155.165
  O      -76.688    -251.851    -153.963
  O      -78.067    -253.373    -155.385
  O      -77.880    -253.928    -152.912
  H      -77.857    -254.327    -155.384
  H      -75.527    -250.565    -155.045
  H      -77.239    -250.498    -155.391
  H      -76.284    -251.844    -155.965

 6  7  8  9  10  11  12  13  14  15  25  28  32  33  34  35 0
 6-311+G(2d,p)
 ****
 36  37  40 0
 6-311+G(2d,p)
 ****
 1  2  3  4  5  16  17  18  19  20  21  22  23  24 0
 3-21G
 ****
 26  27  29  30  31  38  39 41  42  43  44  45  46  47  48 0
 3-21G
 ****


