%nproc=1
%NoSave
%Mem=1900MB
#P OB98/GEN NMR

erre ene a

0 1
  C     -251.610     348.008    -134.097
  O     -251.974     349.202    -134.788
  P     -252.466     350.433    -133.874
  C     -254.522     351.236    -135.243
  O     -253.183     351.507    -134.832
  C     -255.119     352.419    -136.024
  O     -255.196     353.606    -135.190
  C     -254.312     352.801    -137.278
  O     -255.263     353.234    -138.267
  C     -253.502     353.991    -136.801
  O     -253.011     354.763    -137.904
  C     -254.533     354.676    -135.921
  N     -253.434     359.571    -135.293
  C     -253.928     358.901    -136.398
  N     -254.220     359.668    -137.483
  N     -254.124     357.607    -136.438
  C     -253.824     356.991    -135.267
  C     -253.342     357.544    -134.103
  C     -253.109     358.971    -134.074
  O     -252.679     359.614    -133.123
  N     -253.194     356.580    -133.119
  C     -253.521     355.446    -133.723
  N     -253.963     355.655    -135.001
  O     -251.099     351.145    -133.455
  O     -253.261     350.008    -132.689
  H     -252.274     355.315    -137.565
  H     -250.847     350.888    -132.545
  H     -253.289     360.577    -135.316
  H     -253.483     354.478    -133.271
  H     -255.297     355.216    -136.502
  H     -252.644     353.641    -136.207
  H     -254.138     360.669    -137.504
  H     -253.695     351.986    -137.685
  H     -254.627     359.205    -138.291
  H     -256.144     352.147    -136.317
  H     -255.149     351.036    -134.369
  H     -254.532     350.324    -135.836
  P     -255.388     352.387    -139.616
  C     -255.054     354.602    -140.922
  O     -255.790     353.398    -140.796
  O     -256.728     351.534    -139.386
  O     -254.218     351.492    -139.900
  H     -256.613     350.633    -139.750
  H     -255.104     354.941    -141.961
  H     -254.008     354.472    -140.645
  H     -255.500     355.370    -140.278
  H     -251.302     347.266    -134.804
  H     -252.451     347.646    -133.543
  H     -250.804     348.216    -133.425

 3  4  5  6  7  8  9  10  11  12  23  26  30  31 0
 6-311+G(2d,p)
 ****
 33  35  36  37  38 0
 6-311+G(2d,p)
 ****
 1  2  13  14  15  16  17  18  19  20  21  22  24  25 0
 3-21G
 ****
 27  28  29  32  34  39  40  41  42  43  44  45  46  47  48  49 0
 3-21G
 ****


