%nproc=1
%NoSave
%Mem=1900MB
#P OB98/GEN NMR

erre ene a

0 1
  C       67.467    -634.947    -245.657
  O       68.534    -634.026    -245.748
  H       67.763    -635.874    -246.149
  H       66.588    -634.547    -246.164
  H       67.223    -635.169    -244.615
  P       68.486    -632.690    -244.861
  C       67.862    -630.927    -246.638
  O       67.406    -631.726    -245.558
  C       66.683    -630.361    -247.431
  O       65.830    -629.591    -246.530
  C       67.093    -629.424    -248.583
  O       66.108    -629.554    -249.613
  C       66.994    -628.063    -247.919
  O       66.940    -627.029    -248.882
  C       65.742    -628.253    -247.060
  N       65.631    -627.248    -246.005
  C       64.726    -626.215    -246.223
  O       64.058    -626.112    -247.252
  N       64.634    -625.273    -245.236
  C       65.388    -625.235    -244.105
  O       65.289    -624.348    -243.262
  C       66.369    -626.329    -243.946
  C       66.435    -627.273    -244.888
  O       69.802    -632.052    -244.579
  O       67.738    -633.138    -243.516
  H       67.691    -627.106    -249.508
  H       68.055    -632.605    -242.764
  H       63.974    -624.529    -245.371
  H       66.990    -626.318    -243.064
  H       67.144    -628.087    -244.804
  H       64.834    -628.194    -247.674
  H       67.867    -627.874    -247.289
  H       68.088    -629.640    -248.977
  H       66.071    -631.194    -247.799
  H       68.479    -631.556    -247.288
  H       68.476    -630.103    -246.248
  P       66.234    -630.638    -250.781
  C       67.005    -628.948    -252.565
  O       67.327    -630.132    -251.847
  O       64.924    -631.042    -251.394
  O       66.943    -631.906    -250.092
  H       66.677    -632.724    -250.550
  H       67.802    -628.712    -253.239
  H       66.869    -628.140    -251.877
  H       66.102    -629.101    -253.119

 6  7  8  9  10  11  12  13  14  15  16  26  31  32  33  34  35 0
 6-311+G(2d,p)
 ****
 36  37 0
 6-311+G(2d,p)
 ****
 1  2  3  4  5  17  18  19  20  21  22  23  24  25 0
 3-21G
 ****
 27  28  29  30  38  39  40  41  42  43  44  45 0
 3-21G
 ****


