%nproc=1
%NoSave
%Mem=1900MB
#P OB98/GEN NMR

erre ene a

0 1
  C     -313.037      78.644    -321.684
  O     -314.063      79.574    -321.959
  H     -312.956      77.951    -322.526
  H     -313.277      78.071    -320.785
  H     -312.076      79.149    -321.556
  P     -314.255      80.826    -320.976
  C     -316.115      79.607    -319.671
  O     -314.848      80.251    -319.603
  C     -316.888      79.841    -318.377
  O     -318.209      79.267    -318.474
  C     -316.249      79.204    -317.148
  O     -315.131      79.952    -316.713
  C     -317.429      79.196    -316.187
  O     -317.608      80.487    -315.587
  C     -318.599      78.862    -317.142
  N     -318.982      77.451    -317.116
  C     -320.345      77.178    -317.170
  O     -321.204      78.057    -317.200
  N     -320.689      75.854    -317.170
  C     -319.828      74.803    -317.038
  O     -320.194      73.632    -316.990
  C     -318.404      75.151    -316.948
  C     -318.051      76.438    -316.991
  O     -314.999      81.988    -321.543
  O     -312.756      81.224    -320.578
  H     -318.437      80.443    -315.072
  H     -312.467      81.990    -321.107
  H     -321.672      75.636    -317.197
  H     -317.690      74.345    -316.836
  H     -317.006      76.714    -316.922
  H     -319.483      79.458    -316.880
  H     -317.302      78.484    -315.372
  H     -315.965      78.166    -317.361
  H     -317.000      80.924    -318.238
  H     -315.957      78.531    -319.812
  H     -316.667      80.001    -320.528
  P     -313.778      79.223    -316.271
  C     -314.242      79.962    -313.865
  O     -313.905      78.871    -314.709
  O     -312.518      79.930    -316.649
  O     -313.866      77.787    -316.974
  H     -313.251      77.752    -317.732
  H     -314.301      79.624    -312.852
  H     -315.188      80.364    -314.163
  H     -313.491      80.720    -313.945

 6  7  8  9  10  11  12  13  14  15  16  26  31  32  33  34  35 0
 6-311+G(2d,p)
 ****
 36  37 0
 6-311+G(2d,p)
 ****
 1  2  3  4  5  17  18  19  20  21  22  23  24  25 0
 3-21G
 ****
 27  28  29  30  38  39  40  41  42  43  44  45 0
 3-21G
 ****


