%nproc=1
%NoSave
%Mem=1900MB
#P OB98/GEN NMR

erre ene a

0 1
  C     -319.033      85.834     -96.683
  O     -320.054      86.801     -96.493
  P     -321.496      86.499     -97.129
  C     -321.072      87.117     -99.650
  O     -321.225      86.110     -98.661
  C     -321.739      86.676    -100.956
  O     -321.362      85.312    -101.266
  C     -323.260      86.673    -100.926
  O     -323.791      87.986    -101.049
  C     -323.581      85.748    -102.092
  O     -323.481      86.458    -103.336
  C     -322.450      84.701    -101.983
  N     -322.873      83.457    -101.346
  C     -322.634      82.286    -102.060
  O     -322.095      82.270    -103.165
  N     -323.057      81.127    -101.462
  C     -323.736      81.030    -100.283
  O     -324.129      79.969     -99.818
  C     -323.990      82.303     -99.590
  C     -323.556      83.437    -100.144
  O     -322.108      87.977     -97.183
  O     -322.289      85.510     -96.342
  H     -321.414      88.654     -97.253
  H     -324.289      87.002    -103.410
  H     -322.873      80.261    -101.950
  H     -324.535      82.269     -98.656
  H     -323.743      84.386     -99.654
  H     -322.062      84.461    -102.982
  H     -324.591      85.325    -102.033
  H     -323.613      86.222     -99.991
  H     -321.371      87.320    -101.767
  H     -320.008      87.289     -99.822
  H     -321.521      88.046     -99.289
  P     -325.115      88.306    -100.191
  C     -326.728      87.844    -102.195
  O     -326.311      87.504    -100.892
  O     -325.376      89.836    -100.587
  O     -324.952      88.069     -98.725
  H     -325.243      90.008    -101.535
  H     -327.270      86.997    -102.621
  H     -325.879      88.078    -102.839
  H     -327.398      88.706    -102.150
  H     -318.134      86.167     -96.208
  H     -318.856      85.703     -97.730
  H     -319.339      84.903     -96.254

 3  4  5  6  7  8  9  10  11  12  13  24  28  29  30  31  32 0
 6-311+G(2d,p)
 ****
 33  34 0
 6-311+G(2d,p)
 ****
 1  2  14  15  16  17  18  19  20  21  22  23  25  26  27 0
 3-21G
 ****
 35  36  37  38  39  40  41  42  43  44  45 0
 3-21G
 ****


