%nproc=1
%NoSave
%Mem=1900MB
#P OB98/GEN NMR

erre ene a

0 1
  C      274.669    -243.502    -213.669
  O      273.328    -243.906    -213.846
  H      274.861    -243.378    -212.599
  H      274.845    -242.549    -214.172
  H      275.348    -244.264    -214.065
  P      272.835    -244.144    -215.355
  C      271.965    -242.617    -217.265
  O      272.412    -242.696    -215.918
  C      271.647    -241.168    -217.636
  O      270.474    -240.734    -216.890
  C      272.786    -240.182    -217.324
  O      272.841    -239.198    -218.362
  C      272.320    -239.519    -216.039
  O      272.922    -238.245    -215.844
  C      270.814    -239.479    -216.272
  N      269.628    -236.075    -212.759
  C      270.357    -235.944    -213.922
  N      270.856    -234.721    -214.196
  N      270.585    -236.932    -214.749
  C      270.005    -238.096    -214.364
  C      269.271    -238.358    -213.231
  C      269.046    -237.260    -212.316
  O      268.427    -237.322    -211.256
  N      268.890    -239.677    -213.186
  C      269.394    -240.209    -214.288
  N      270.074    -239.284    -215.035
  O      271.430    -244.892    -215.176
  O      273.774    -244.906    -216.227
  H      272.522    -237.842    -215.043
  H      271.256    -245.488    -215.930
  H      269.489    -235.284    -212.149
  H      269.294    -241.243    -214.589
  H      270.515    -238.670    -216.950
  H      272.566    -240.153    -215.179
  H      270.693    -233.905    -213.622
  H      273.762    -240.661    -217.220
  H      271.384    -234.594    -215.051
  H      271.376    -241.132    -218.698
  H      271.064    -243.227    -217.379
  H      272.747    -243.006    -217.925
  P      274.266    -238.909    -219.035
  C      276.459    -237.660    -218.416
  O      275.167    -238.081    -217.993
  O      273.916    -237.826    -220.167
  O      274.912    -240.117    -219.629
  H      273.977    -238.239    -221.050
  H      276.937    -237.124    -217.623
  H      276.365    -237.023    -219.270
  H      277.047    -238.516    -218.673

 6  7  8  9  10  11  12  13  14  15  26  29  33  34 0
 6-311+G(2d,p)
 ****
 36  38  39  40  41 0
 6-311+G(2d,p)
 ****
 1  2  3  4  5  16  17  18  19  20  21  22  23  24  25 0
 3-21G
 ****
 27  28  30  31  32  35  37  42  43  44  45  46  47 0
 3-21G
 ****
 48  49 0
 3-21G
 ****


