%nproc=1
%NoSave
%Mem=1900MB
#P OB98/GEN NMR

erre ene a

0 1
  C      108.135     595.104      17.362
  O      107.529     595.486      18.577
  H      108.881     595.856      17.086
  H      107.378     595.053      16.574
  H      108.634     594.135      17.451
  P      106.753     594.383      19.433
  C      104.916     592.642      18.916
  O      105.458     593.920      18.603
  C      104.237     592.002      17.705
  O      105.230     591.351      16.878
  C      103.224     590.930      18.102
  O      101.918     591.427      18.367
  C      103.222     590.025      16.870
  O      102.273     590.476      15.885
  C      104.653     590.158      16.332
  N      105.764     585.259      15.383
  C      104.688     586.001      14.942
  N      103.787     585.347      14.182
  N      104.520     587.264      15.236
  C      105.454     587.760      16.086
  C      106.548     587.109      16.605
  C      106.773     585.733      16.221
  O      107.718     585.034      16.571
  N      107.254     587.922      17.466
  C      106.530     589.023      17.527
  N      105.477     589.000      16.646
  O      106.111     595.228      20.637
  O      107.606     593.271      19.971
  H      102.605     591.317      15.505
  H      106.057     594.670      21.434
  H      105.860     584.297      15.110
  H      106.752     589.883      18.156
  H      104.662     590.270      15.240
  H      102.938     589.002      17.136
  H      103.825     584.351      13.998
  H      103.584     590.344      18.954
  H      102.893     585.798      13.994
  H      103.777     592.789      17.092
  H      104.194     592.801      19.714
  H      105.700     591.987      19.308
  P      100.936     590.649      19.360
  C      100.591     588.049      19.477
  O      100.579     589.239      18.714
  O       99.564     591.478      19.224
  O      101.396     590.556      20.779
  H       99.473     592.103      19.968
  H      100.323     587.222      18.853
  H       99.888     588.133      20.279
  H      101.571     587.891      19.876

 6  7  8  9  10  11  12  13  14  15  26  29  33  34 0
 6-311+G(2d,p)
 ****
 36  38  39  40  41 0
 6-311+G(2d,p)
 ****
 1  2  3  4  5  16  17  18  19  20  21  22  23  24  25 0
 3-21G
 ****
 27  28  30  31  32  35  37  42  43  44  45  46  47 0
 3-21G
 ****
 48  49 0
 3-21G
 ****


