%nproc=1
%NoSave
%Mem=1900MB
#P OB98/GEN NMR

erre ene a

0 1
  C     -413.551     409.809       5.956
  O     -413.601     411.132       5.407
  P     -415.021     411.879       5.461
  C     -413.893     414.220       5.465
  O     -414.839     413.347       4.854
  C     -412.857     414.679       4.447
  O     -412.180     413.562       3.823
  C     -413.458     415.472       3.286
  O     -413.794     416.788       3.690
  C     -412.320     415.395       2.263
  O     -411.297     416.344       2.577
  C     -411.794     413.965       2.486
  N     -410.562     410.919      -1.440
  C     -409.822     411.769      -0.685
  N     -410.225     412.548       0.340
  C     -411.539     412.382       0.579
  C     -412.416     411.549      -0.101
  C     -411.882     410.793      -1.156
  N     -412.636     409.944      -1.935
  N     -413.687     411.644       0.425
  C     -413.582     412.536       1.397
  N     -412.302     413.003       1.530
  O     -415.245     412.134       7.027
  O     -416.137     411.082       4.867
  H     -411.045     416.212       3.512
  H     -415.944     411.546       7.367
  H     -408.771     411.833      -0.948
  H     -414.406     412.882       2.017
  H     -410.698     413.918       2.435
  H     -412.656     415.588       1.243
  H     -414.347     414.958       2.896
  H     -412.111     415.295       4.961
  H     -413.391     413.714       6.297
  H     -412.186     409.497      -2.721
  H     -413.636     409.902      -1.790
  H     -414.428     415.073       5.898
  P     -415.351     417.161       3.789
  C     -414.680     419.113       5.311
  O     -415.346     418.731       4.119
  O     -415.758     416.504       5.185
  O     -416.174     416.750       2.611
  H     -415.098     416.702       5.883
  H     -414.724     420.206       5.399
  H     -413.636     418.804       5.282
  H     -415.187     418.674       6.176
  H     -412.558     409.421       5.861
  H     -414.233     409.177       5.427
  H     -413.824     409.841       6.990

 3  4  5  6  7  8  9  10  11  12  22  25  29  30  31  32 0
 6-311+G(2d,p)
 ****
 33  36  37 0
 6-311+G(2d,p)
 ****
 1  2  13  14  15  16  17  18  19  20  21  23  24  26 0
 3-21G
 ****
 27  28  34  35  38  39  40  41  42  43  44  45  46  47  48 0
 3-21G
 ****


