%nproc=1
%NoSave
%Mem=1900MB
#P OB98/GEN NMR

erre ene a

0 1
  C      245.424    -852.130    1024.195
  O      244.377    -852.535    1025.065
  H      246.375    -852.423    1024.637
  H      245.407    -851.039    1024.075
  H      245.326    -852.617    1023.226
  P      242.860    -852.373    1024.584
  C      242.715    -854.834    1023.839
  O      242.182    -853.830    1024.673
  C      241.927    -856.134    1023.998
  O      242.075    -856.652    1025.354
  C      240.416    -855.958    1023.808
  O      240.081    -855.837    1022.440
  C      239.897    -857.224    1024.496
  O      239.965    -858.348    1023.612
  C      240.897    -857.386    1025.688
  N      240.299    -856.926    1026.943
  C      239.748    -857.901    1027.745
  O      239.724    -859.102    1027.464
  N      239.147    -857.463    1028.902
  C      238.942    -856.127    1029.227
  O      238.196    -855.777    1030.123
  C      239.619    -855.151    1028.368
  C      240.242    -855.586    1027.280
  O      242.670    -851.669    1023.280
  O      242.157    -851.580    1025.782
  H      242.071    -850.650    1025.531
  H      239.571    -859.100    1024.076
  H      238.689    -858.152    1029.460
  H      239.542    -854.117    1028.628
  H      240.734    -854.867    1026.595
  H      241.174    -858.448    1025.788
  H      238.851    -857.122    1024.804
  H      240.072    -855.083    1024.376
  H      242.320    -856.890    1023.303
  H      243.767    -855.012    1024.118
  H      242.691    -854.502    1022.791
  P      238.995    -854.723    1021.992
  C      240.595    -853.076    1020.849
  O      239.526    -854.010    1020.665
  O      238.540    -853.794    1023.072
  O      237.766    -855.618    1021.445
  H      236.947    -855.309    1021.857
  H      240.872    -852.660    1019.903
  H      241.437    -853.578    1021.278
  H      240.275    -852.292    1021.504

 6  7  8  9  10  11  12  13  14  15  16  27  31  32  33  34  35 0
 6-311+G(2d,p)
 ****
 36  37 0
 6-311+G(2d,p)
 ****
 1  2  3  4  5  17  18  19  20  21  22  23  24  25 0
 3-21G
 ****
 26  28  29  30  38  39  40  41  42  43  44  45 0
 3-21G
 ****


