%nproc=1
%NoSave
%Mem=1900MB
#P OB98/GEN NMR

erre ene a

0 1
  C      347.851    -591.145     578.840
  O      346.609    -590.815     578.250
  H      348.654    -590.591     578.342
  H      347.830    -590.855     579.893
  H      348.036    -592.219     578.780
  P      346.367    -591.318     576.747
  C      346.395    -588.936     575.688
  O      347.040    -590.207     575.802
  C      347.297    -587.832     576.243
  O      348.442    -587.671     575.362
  C      346.592    -586.470     576.341
  O      347.024    -585.806     577.529
  C      347.105    -585.715     575.122
  O      347.056    -584.308     575.289
  C      348.517    -586.285     574.985
  N      349.265    -583.007     571.135
  C      348.826    -582.833     572.403
  N      348.657    -583.758     573.371
  C      349.055    -584.968     572.934
  C      349.520    -585.303     571.671
  C      349.608    -584.257     570.738
  N      350.019    -584.433     569.443
  N      349.778    -586.658     571.602
  C      349.472    -587.134     572.794
  N      349.025    -586.151     573.635
  O      344.792    -591.073     576.550
  O      346.754    -592.728     576.459
  H      347.679    -583.900     574.665
  H      344.299    -591.802     576.973
  H      348.566    -581.805     572.674
  H      349.549    -588.168     573.094
  H      349.237    -585.783     575.654
  H      346.504    -585.982     574.244
  H      345.509    -586.549     576.343
  H      347.683    -588.145     577.214
  H      345.451    -588.965     576.252
  H      350.000    -583.643     568.826
  H      350.225    -585.367     569.113
  H      346.174    -588.741     574.631
  P      346.114    -586.010     578.840
  C      344.851    -583.738     578.926
  O      344.778    -585.128     578.667
  O      346.936    -585.231     579.980
  O      345.891    -587.435     579.202
  H      347.025    -585.803     580.763
  H      343.890    -583.295     578.768
  H      345.563    -583.289     578.266
  H      345.155    -583.580     579.940

 6  7  8  9  10  11  12  13  14  15  25  28  32  33  34  35 0
 6-311+G(2d,p)
 ****
 36  39  40 0
 6-311+G(2d,p)
 ****
 1  2  3  4  5  16  17  18  19  20  21  22  23  24 0
 3-21G
 ****
 26  27  29  30  31  37  38  41  42  43  44  45  46  47 0
 3-21G
 ****
 48 0
 3-21G
 ****


