%nproc=1
%NoSave
%Mem=1900MB
#P OB98/GEN NMR

erre ene a

0 1
  C      171.347     184.714     196.439
  O      171.662     185.845     197.253
  P      171.887     185.678     198.832
  C      169.422     185.305     199.404
  O      170.726     184.739     199.431
  C      168.577     184.944     200.633
  O      167.373     185.751     200.693
  C      168.138     183.477     200.704
  O      168.107     183.142     202.097
  C      166.733     183.532     200.130
  O      165.955     182.393     200.472
  C      166.239     184.870     200.701
  N      165.120     185.417     199.939
  C      163.840     185.193     200.448
  O      163.684     184.511     201.464
  N      162.758     185.708     199.771
  C      162.939     186.301     198.634
  N      161.832     186.765     197.997
  C      164.267     186.482     198.015
  C      165.302     186.030     198.724
  O      172.092     186.959     199.573
  O      173.193     184.755     198.938
  H      165.030     182.561     200.185
  H      173.678     184.972     199.756
  H      164.367     186.963     197.056
  H      166.316     186.122     198.360
  H      165.917     184.745     201.746
  H      166.783     183.584     199.036
  H      168.792     182.800     200.154
  H      169.170     185.196     201.520
  H      160.936     186.600     198.443
  H      168.907     184.953     198.502
  H      161.847     187.138     197.060
  H      169.506     186.393     199.321
  P      169.127     182.095     202.738
  C      167.402     180.236     203.093
  O      168.571     180.635     202.397
  O      169.433     182.319     204.185
  O      170.453     182.201     201.842
  H      171.205     181.814     202.330
  H      167.006     179.335     202.632
  H      166.643     181.020     203.055
  H      167.654     180.019     204.137
  H      171.236     185.027     195.422
  H      170.433     184.273     196.779
  H      172.136     183.995     196.507

 3  4  5  6  7  8  9  10  11  12  13  23  27  28  29  30  32 0
 6-311+G(2d,p)
 ****
 34  35 0
 6-311+G(2d,p)
 ****
 1  2  14  15  16  17  18  19  20  21  22  24  25  26 0
 3-21G
 ****
 31  33  36  37  38  39  40  41  42  43  44  45  46 0
 3-21G
 ****


