%nproc=1
%NoSave
%Mem=1900MB
#P OB98/GEN NMR

erre ene a

0 1
  C      -26.282      60.953    -473.128
  O      -26.354      59.932    -472.145
  P      -25.252      58.754    -472.231
  C      -24.547      57.279    -474.250
  O      -25.607      57.883    -473.529
  C      -25.069      56.606    -475.528
  O      -25.633      57.594    -476.403
  C      -24.018      55.875    -476.334
  O      -23.676      54.630    -475.736
  C      -24.753      55.752    -477.676
  O      -25.690      54.678    -477.634
  C      -25.477      57.107    -477.760
  N      -23.346      58.065    -482.328
  C      -23.967      56.982    -481.826
  N      -24.482      56.783    -480.593
  C      -24.322      57.876    -479.842
  C      -23.689      59.066    -480.195
  C      -23.188      59.138    -481.505
  N      -22.557      60.269    -482.008
  N      -23.700      59.962    -479.151
  C      -24.330      59.333    -478.183
  N      -24.746      58.081    -478.541
  O      -25.660      57.795    -471.020
  O      -23.829      59.223    -472.134
  H      -26.381      54.916    -476.980
  H      -24.870      57.382    -470.616
  H      -24.061      56.133    -482.519
  H      -24.525      59.748    -477.195
  H      -26.477      57.013    -478.197
  H      -24.067      55.560    -478.513
  H      -23.111      56.486    -476.454
  H      -25.875      55.907    -475.220
  H      -24.055      56.520    -473.624
  H      -22.097      60.182    -482.896
  H      -22.322      60.999    -481.361
  H      -23.787      58.050    -474.498
  P      -22.396      53.859    -476.323
  C      -22.047      52.908    -478.694
  O      -22.957      53.108    -477.621
  O      -22.208      52.670    -475.260
  O      -21.186      54.735    -476.534
  H      -23.058      52.210    -475.097
  H      -22.538      52.349    -479.482
  H      -21.166      52.347    -478.339
  H      -21.723      53.877    -479.090
  H      -27.062      61.666    -472.960
  H      -26.397      60.521    -474.100
  H      -25.332      61.442    -473.066

 3  4  5  6  7  8  9  10  11  12  22  25  29  30  31  32 0
 6-311+G(2d,p)
 ****
 33  36  37 0
 6-311+G(2d,p)
 ****
 1  2  13  14  15  16  17  18  19  20  21  23  24  26 0
 3-21G
 ****
 27  28  34  35  38  39  40  41  42  43  44  45  46  47  48 0
 3-21G
 ****


