%nproc=1
%NoSave
%Mem=1900MB
#P OB98/GEN NMR

erre ene a

0 1
  C      186.419       7.742     507.627
  O      187.170       6.725     508.284
  P      188.759       6.704     508.049
  C      190.350       6.220     506.018
  O      189.025       6.356     506.511
  C      190.371       6.246     504.478
  O      189.594       5.134     503.991
  C      189.753       7.486     503.840
  O      190.219       7.582     502.491
  C      188.280       7.136     503.846
  O      187.546       7.946     502.935
  C      188.300       5.621     503.535
  N      187.208       4.863     504.183
  C      186.093       4.526     503.420
  O      185.949       4.813     502.237
  N      185.093       3.861     504.078
  C      185.115       3.475     505.390
  O      184.165       2.952     505.953
  C      186.371       3.729     506.110
  C      187.335       4.414     505.484
  O      189.244       5.401     508.839
  O      189.448       7.944     508.531
  H      186.589       7.722     503.066
  H      189.681       5.650     509.665
  H      184.251       3.662     503.562
  H      186.462       3.384     507.127
  H      188.264       4.632     506.010
  H      188.219       5.439     502.447
  H      187.862       7.305     504.844
  H      189.952       8.427     504.374
  H      191.405       6.106     504.134
  H      190.788       5.280     506.386
  H      190.977       7.036     506.406
  P      190.957       8.939     502.045
  C      190.231      11.320     501.414
  O      189.801      10.010     501.748
  O      191.998       8.793     500.988
  O      191.587       9.469     503.424
  H      192.298      10.109     503.231
  H      189.481      11.773     500.759
  H      191.201      11.317     500.895
  H      190.315      11.913     502.331
  H      185.383       7.635     507.872
  H      186.546       7.652     506.568
  H      186.764       8.703     507.947

 3  4  5  6  7  8  9  10  11  12  13  23  28  29  30  31  32 0
 6-311+G(2d,p)
 ****
 33  34 0
 6-311+G(2d,p)
 ****
 1  2  14  15  16  17  18  19  20  21  22  24  25  26  27 0
 3-21G
 ****
 35  36  37  38  39  40  41  42  43  44  45 0
 3-21G
 ****


