%nproc=1
%NoSave
%Mem=1900MB
#P OB98/GEN NMR

erre ene a

0 1
  C      180.335      77.830    -224.401
  O      180.123      78.408    -225.691
  P      178.705      78.523    -226.414
  C      177.828      80.228    -228.205
  O      178.889      79.407    -227.736
  C      178.216      81.078    -229.432
  O      179.164      82.102    -229.028
  C      178.923      80.214    -230.481
  O      178.166      79.450    -231.399
  C      179.930      81.157    -231.136
  O      179.420      81.764    -232.319
  C      180.176      82.214    -230.053
  N      185.235      82.621    -230.743
  C      184.216      82.724    -231.668
  N      184.587      82.915    -232.956
  N      182.945      82.634    -231.367
  C      182.719      82.361    -230.064
  C      183.644      82.213    -229.052
  C      185.044      82.372    -229.388
  O      185.985      82.299    -228.603
  N      183.038      81.916    -227.855
  C      181.756      81.858    -228.144
  N      181.507      82.127    -229.474
  O      177.554      78.860    -225.528
  O      178.461      77.031    -226.987
  H      180.094      82.382    -232.658
  H      177.494      76.876    -226.958
  H      186.191      82.724    -231.027
  H      180.967      81.634    -227.435
  H      180.085      83.229    -230.468
  H      180.833      80.609    -231.427
  H      185.543      82.873    -233.273
  H      179.529      79.481    -229.935
  H      183.861      82.775    -233.664
  H      177.349      81.614    -229.826
  H      177.532      80.872    -227.373
  H      176.957      79.614    -228.444
  P      178.211      77.859    -231.568
  C      176.871      76.058    -232.804
  O      177.130      77.444    -232.673
  O      177.562      77.303    -230.214
  O      179.579      77.283    -231.776
  H      177.774      76.357    -230.095
  H      176.368      75.876    -233.762
  H      176.207      75.731    -231.992
  H      177.798      75.479    -232.773
  H      181.375      77.880    -224.154
  H      180.020      76.807    -224.412
  H      179.769      78.370    -223.671

 3  4  5  6  7  8  9  10  11  12  23  26  30  31 0
 6-311+G(2d,p)
 ****
 33  35  36  37  38 0
 6-311+G(2d,p)
 ****
 1  2  13  14  15  16  17  18  19  20  21  22  24  25 0
 3-21G
 ****
 27  28  29  32  34  39  40  41  42  43  44  45  46  47  48  49 0
 3-21G
 ****


