%nproc=1
%NoSave
%Mem=1900MB
#P OB98/GEN NMR

erre ene a

0 1
  C      218.416      88.602    -152.476
  O      218.194      87.654    -151.452
  H      217.598      89.327    -152.464
  H      218.437      88.118    -153.457
  H      219.355      89.132    -152.303
  P      219.165      86.382    -151.353
  C      217.473      85.025    -152.745
  O      218.823      85.449    -152.615
  C      217.403      83.590    -153.269
  O      217.971      83.558    -154.608
  C      218.168      82.581    -152.403
  O      217.431      81.356    -152.382
  C      219.467      82.410    -153.165
  O      220.087      81.176    -152.863
  C      219.019      82.573    -154.621
  N      220.135      82.969    -155.477
  C      220.722      81.959    -156.247
  O      220.288      80.807    -156.195
  N      221.825      82.258    -157.005
  C      222.337      83.447    -156.960
  N      223.453      83.666    -157.705
  C      221.767      84.538    -156.139
  C      220.677      84.234    -155.435
  O      219.186      85.671    -150.040
  O      220.605      86.977    -151.722
  H      219.427      80.452    -152.935
  H      221.062      87.271    -150.912
  H      222.234      85.512    -156.131
  H      220.197      84.969    -154.796
  H      218.595      81.635    -155.006
  H      220.164      83.211    -152.891
  H      218.336      82.936    -151.382
  H      216.348      83.305    -153.364
  H      223.820      82.882    -158.229
  H      216.975      85.700    -153.451
  H      223.962      84.537    -157.716
  H      216.967      85.095    -151.775
  P      216.475      81.000    -151.144
  C      218.463      79.920    -149.945
  O      217.371      80.825    -149.819
  O      215.517      79.880    -151.395
  O      215.678      82.367    -150.872
  H      214.796      82.158    -150.509
  H      218.995      79.872    -149.018
  H      219.121      80.261    -150.717
  H      218.093      78.948    -150.195

 6  7  8  9  10  11  12  13  14  15  16  26  30  31  32  33  35 0
 6-311+G(2d,p)
 ****
 37  38 0
 6-311+G(2d,p)
 ****
 1  2  3  4  5  17  18  19  20  21  22  23  24  25 0
 3-21G
 ****
 27  28  29  34  36  39  40  41  42  43  44  45  46 0
 3-21G
 ****


