%nproc=1
%NoSave
%Mem=1900MB
#P OB98/GEN NMR

erre ene a

0 1
  C      -28.140     854.662     293.560
  O      -29.002     855.269     294.509
  P      -28.325     855.883     295.831
  C      -29.937     857.912     295.924
  O      -29.487     856.728     296.559
  C      -31.140     858.482     296.676
  O      -32.288     857.622     296.513
  C      -30.951     858.636     298.171
  O      -30.242     859.803     298.511
  C      -32.392     858.726     298.645
  O      -32.891     860.047     298.419
  C      -33.100     857.723     297.710
  N      -36.422     854.538     299.917
  C      -36.552     855.806     299.511
  N      -35.602     856.602     298.941
  C      -34.433     855.946     298.848
  C      -34.150     854.659     299.237
  C      -35.213     853.927     299.801
  N      -35.104     852.611     300.195
  N      -32.830     854.339     298.986
  C      -32.338     855.412     298.426
  N      -33.252     856.412     298.302
  O      -27.350     857.008     295.238
  O      -27.591     854.906     296.679
  H      -33.774     860.097     298.826
  H      -26.642     857.208     295.880
  H      -37.517     856.267     299.651
  H      -31.310     855.512     298.067
  H      -34.094     858.077     297.409
  H      -32.502     858.513     299.708
  H      -30.472     857.740     298.599
  H      -31.391     859.459     296.219
  H      -30.239     857.687     294.896
  H      -35.945     852.103     300.404
  H      -34.265     852.103     299.916
  H      -29.128     858.645     295.904
  P      -28.827     859.619     299.256
  C      -27.723     861.461     297.781
  O      -28.064     861.029     299.081
  O      -28.033     858.637     298.274
  O      -28.944     859.084     300.646
  H      -27.357     858.133     298.783
  H      -27.512     862.539     297.821
  H      -28.547     861.301     297.081
  H      -26.836     860.927     297.432
  H      -28.717     854.298     292.736
  H      -27.621     853.847     294.020
  H      -27.432     855.383     293.209

 3  4  5  6  7  8  9  10  11  12  22  25  29  30  31  32 0
 6-311+G(2d,p)
 ****
 33  36  37 0
 6-311+G(2d,p)
 ****
 1  2  13  14  15  16  17  18  19  20  21  23  24  26 0
 3-21G
 ****
 27  28  34  35  38  39  40  41  42  43  44  45  46  47  48 0
 3-21G
 ****


