%nproc=1
%NoSave
%Mem=1900MB
#P OB98/GEN NMR

erre ene a

0 1
  C       74.594     265.083     -60.412
  O       74.765     265.036     -59.014
  H       74.972     266.043     -60.775
  H       73.534     265.013     -60.670
  H       75.153     264.279     -60.897
  P       74.253     263.748     -58.203
  C       76.715     263.179     -57.755
  O       75.476     262.700     -58.258
  C       77.626     262.021     -57.345
  O       76.920     261.154     -56.416
  C       78.091     261.153     -58.524
  O       79.498     260.922     -58.428
  C       77.344     259.844     -58.320
  O       77.993     258.732     -58.929
  C       77.245     259.804     -56.792
  N       76.251     258.843     -56.333
  C       76.704     257.537     -56.127
  O       77.886     257.253     -56.327
  N       75.803     256.575     -55.755
  C       74.548     256.879     -55.644
  N       73.701     255.872     -55.301
  C       74.020     258.239     -55.879
  C       74.920     259.164     -56.214
  O       72.938     263.209     -58.654
  O       74.252     264.204     -56.669
  H       77.500     257.916     -58.691
  H       73.637     263.623     -56.163
  H       72.964     258.440     -55.779
  H       74.627     260.191     -56.407
  H       78.213     259.548     -56.342
  H       76.340     259.929     -58.756
  H       77.868     261.594     -59.495
  H       78.481     262.431     -56.792
  H       74.104     254.953     -55.156
  H       76.517     263.832     -56.897
  H       72.703     255.983     -55.209
  H       77.208     263.758     -58.542
  P       80.370     261.315     -59.717
  C       80.702     263.633     -58.598
  O       80.442     262.916     -59.796
  O       79.423     260.908     -60.941
  O       81.685     260.613     -59.782
  H       79.794     260.132     -61.402
  H       80.720     264.682     -58.807
  H       81.649     263.332     -58.201
  H       79.933     263.425     -57.884

 6  7  8  9  10  11  12  13  14  15  16  26  30  31  32  33  35 0
 6-311+G(2d,p)
 ****
 37  38 0
 6-311+G(2d,p)
 ****
 1  2  3  4  5  17  18  19  20  21  22  23  24  25 0
 3-21G
 ****
 27  28  29  34  36  39  40  41  42  43  44  45  46 0
 3-21G
 ****


