%nproc=1
%NoSave
%Mem=1900MB
#P OB98/GEN NMR

erre ene a

0 1
  C      138.149     152.421    -141.146
  O      137.323     153.551    -141.337
  H      138.370     151.978    -142.120
  H      137.639     151.676    -140.529
  H      139.088     152.718    -140.671
  P      136.793     154.293    -140.018
  C      134.467     153.563    -139.119
  O      135.848     153.254    -139.246
  C      133.699     152.957    -140.290
  O      133.834     151.515    -140.270
  C      132.200     153.222    -140.254
  O      131.863     154.524    -140.706
  C      131.693     152.135    -141.185
  O      131.764     152.540    -142.561
  C      132.656     150.969    -140.898
  N      132.025     149.937    -140.081
  C      131.063     149.161    -140.723
  O      130.749     149.314    -141.903
  N      130.442     148.220    -139.950
  C      130.646     148.020    -138.617
  O      130.012     147.195    -137.969
  C      131.660     148.878    -137.986
  C      132.293     149.787    -138.734
  O      135.772     155.381    -140.597
  O      137.858     154.917    -139.176
  H      136.170     156.269    -140.541
  H      131.632     151.727    -143.087
  H      129.743     147.647    -140.397
  H      131.847     148.746    -136.928
  H      133.037     150.440    -138.291
  H      132.987     150.506    -141.835
  H      130.655     151.894    -140.974
  H      131.807     153.040    -139.247
  H      134.135     153.331    -141.225
  H      134.330     154.649    -139.130
  H      134.100     153.173    -138.165
  P      130.459     155.139    -140.230
  C      128.534     155.335    -142.014
  O      129.353     154.508    -141.204
  O      130.621     156.651    -140.722
  O      130.211     154.970    -138.769
  H      131.222     156.722    -141.485
  H      127.866     154.725    -142.586
  H      129.149     155.908    -142.676
  H      127.968     155.996    -141.391

 6  7  8  9  10  11  12  13  14  15  16  27  31  32  33  34  35 0
 6-311+G(2d,p)
 ****
 36  37 0
 6-311+G(2d,p)
 ****
 1  2  3  4  5  17  18  19  20  21  22  23  24  25 0
 3-21G
 ****
 26  28  29  30  38  39  40  41  42  43  44  45 0
 3-21G
 ****


