%nproc=1
%NoSave
%Mem=1900MB
#P OB98/GEN NMR

erre ene a

0 1
  C     -168.892    -784.352     358.102
  O     -167.776    -785.222     358.339
  P     -168.060    -786.801     358.274
  C     -165.631    -787.528     357.752
  O     -166.718    -787.593     358.660
  C     -164.280    -787.767     358.445
  O     -163.885    -786.603     359.216
  C     -164.298    -788.970     359.406
  O     -162.997    -789.566     359.353
  C     -164.492    -788.326     360.760
  O     -164.061    -789.191     361.811
  C     -163.660    -787.040     360.586
  N     -164.014    -785.989     361.546
  C     -163.209    -785.874     362.685
  O     -162.288    -786.687     362.888
  N     -163.474    -784.878     363.593
  C     -164.502    -784.105     363.404
  N     -164.728    -783.134     364.340
  C     -165.415    -784.232     362.247
  C     -165.116    -785.180     361.368
  O     -168.242    -787.084     356.707
  O     -169.285    -787.210     359.046
  H     -164.269    -788.753     362.668
  H     -169.056    -787.599     356.550
  H     -166.263    -783.571     362.153
  H     -165.717    -785.341     360.492
  H     -162.602    -787.257     360.704
  H     -165.550    -788.081     360.920
  H     -165.056    -789.720     359.146
  H     -163.523    -787.924     357.664
  H     -164.070    -783.088     365.129
  H     -165.613    -786.546     357.269
  H     -165.485    -782.485     364.307
  H     -165.794    -788.244     356.942
  P     -162.780    -790.821     358.376
  C     -160.240    -790.451     358.400
  O     -161.294    -791.344     358.718
  O     -162.561    -790.099     356.965
  O     -163.853    -791.853     358.308
  H     -162.482    -790.783     356.266
  H     -159.300    -790.885     358.793
  H     -160.407    -789.482     358.874
  H     -160.136    -790.344     357.321
  H     -168.572    -783.334     358.173
  H     -169.651    -784.539     358.832
  H     -169.285    -784.535     357.124

 3  4  5  6  7  8  9  10  11  12  13  21  23  27  28  29  30  32 0
 6-311+G(2d,p)
 ****
 34  35 0
 6-311+G(2d,p)
 ****
 1  2  14  15  16  17  18  19  20  22  24  25  26 0
 3-21G
 ****
 31  33  36  37  38  39  40  41  42  43  44  45  46 0
 3-21G
 ****


