%nproc=1
%NoSave
%Mem=1900MB
#P OB98/GEN NMR

erre ene a

0 1
  C      -98.088      50.808     221.408
  O      -98.577      51.129     222.699
  P      -99.964      51.900     222.882
  C      -98.945      54.269     222.399
  O      -99.889      53.273     222.075
  C      -99.427      55.612     221.836
  O      -99.517      55.546     220.398
  C     -100.803      55.987     222.379
  O     -100.682      56.832     223.512
  C     -101.456      56.662     221.188
  O     -101.028      58.033     221.088
  C     -100.887      55.835     220.011
  N     -101.546      54.558     219.675
  C     -102.911      54.538     219.403
  O     -103.619      55.540     219.394
  N     -103.450      53.299     219.162
  C     -102.761      52.123     219.124
  O     -103.280      51.013     219.148
  C     -101.300      52.245     219.147
  C     -100.769      53.432     219.440
  O      -99.920      52.365     224.411
  O     -101.189      51.100     222.576
  H     -101.429      58.514     221.834
  H     -100.433      51.754     224.972
  H     -104.462      53.261     219.102
  H     -100.708      51.356     218.978
  H      -99.689      53.539     219.500
  H     -100.854      56.432     219.093
  H     -102.539      56.690     221.295
  H     -101.374      55.081     222.625
  H      -98.692      56.387     222.092
  H      -97.966      54.009     221.981
  H      -98.825      54.335     223.485
  P     -101.723      56.692     224.718
  C     -103.442      57.747     223.136
  O     -103.171      56.684     224.027
  O     -101.552      57.666     225.835
  O     -101.513      55.180     225.209
  H     -100.918      55.164     225.987
  H     -104.372      57.530     222.605
  H     -102.632      57.856     222.410
  H     -103.564      58.677     223.699
  H      -97.152      50.297     221.498
  H      -97.950      51.707     220.845
  H      -98.792      50.178     220.906

 3  4  5  6  7  8  9  10  11  12  13  23  28  29  30  31  32 0
 6-311+G(2d,p)
 ****
 33  34 0
 6-311+G(2d,p)
 ****
 1  2  14  15  16  17  18  19  20  21  22  24  25  26  27 0
 3-21G
 ****
 35  36  37  38  39  40  41  42  43  44  45 0
 3-21G
 ****


