%nproc=1
%NoSave
%Mem=1900MB
#P OB98/GEN NMR

erre ene a

0 1
  C      -70.549      21.069    -124.968
  O      -69.940      20.046    -124.206
  H      -70.012      22.007    -124.816
  H      -70.494      20.800    -126.026
  H      -71.599      21.188    -124.689
  P      -70.167      20.077    -122.619
  C      -67.659      19.845    -121.992
  O      -68.950      19.252    -121.972
  C      -66.654      18.914    -122.668
  O      -67.088      18.680    -124.038
  C      -65.219      19.462    -122.716
  O      -64.312      18.377    -122.494
  C      -65.077      19.938    -124.151
  O      -63.725      19.952    -124.595
  C      -65.955      18.931    -124.887
  N      -65.049      18.677    -129.884
  C      -64.696      17.870    -128.861
  N      -65.027      17.983    -127.559
  C      -65.861      19.019    -127.368
  C      -66.314      19.925    -128.311
  C      -65.857      19.733    -129.626
  N      -66.156      20.587    -130.663
  N      -67.110      20.884    -127.715
  C      -67.114      20.577    -126.434
  N      -66.371      19.459    -126.174
  O      -71.423      19.100    -122.433
  O      -70.414      21.425    -122.031
  H      -63.669      20.466    -125.423
  H      -72.249      19.609    -122.528
  H      -64.055      17.031    -129.118
  H      -67.606      21.140    -125.653
  H      -65.442      17.978    -125.071
  H      -65.481      20.953    -124.240
  H      -65.025      20.259    -121.990
  H      -66.679      17.945    -122.154
  H      -67.334      20.030    -120.963
  H      -65.696      20.431    -131.547
  H      -66.664      21.437    -130.466
  H      -67.708      20.801    -122.521
  P      -63.317      18.490    -121.243
  C      -61.164      17.425    -122.249
  O      -62.247      17.302    -121.333
  O      -64.236      18.066    -120.003
  O      -62.734      19.854    -121.054
  H      -63.969      18.550    -119.202
  H      -60.544      16.555    -122.188
  H      -60.587      18.292    -122.004
  H      -61.547      17.521    -123.243

 6  7  8  9  10  11  12  13  14  15  25  28  32  33  34  35 0
 6-311+G(2d,p)
 ****
 36  39  40 0
 6-311+G(2d,p)
 ****
 1  2  3  4  5  16  17  18  19  20  21  22  23  24 0
 3-21G
 ****
 26  27  29  30  31  37  38  41  42  43  44  45  46  47 0
 3-21G
 ****
 48 0
 3-21G
 ****


