%nproc=1
%NoSave
%Mem=1900MB
#P OB98/GEN NMR

erre ene a

0 1
  C      103.526    -568.010     -53.267
  O      104.056    -568.457     -52.007
  P      105.514    -567.943     -51.575
  C      104.652    -566.190     -49.857
  O      105.373    -566.434     -51.058
  C      105.261    -565.011     -49.094
  O      105.089    -563.765     -49.809
  C      104.658    -564.803     -47.714
  O      105.243    -565.662     -46.741
  C      105.066    -563.361     -47.437
  O      106.440    -563.315     -46.998
  C      104.929    -562.712     -48.819
  N      102.514    -558.264     -48.747
  C      103.838    -558.558     -48.511
  N      104.649    -557.512     -48.222
  N      104.341    -559.771     -48.557
  C      103.421    -560.710     -48.880
  C      102.075    -560.540     -49.133
  C      101.540    -559.208     -49.067
  O      100.366    -558.878     -49.249
  N      101.470    -561.735     -49.414
  C      102.447    -562.628     -49.351
  N      103.646    -562.055     -49.015
  O      106.260    -567.761     -52.986
  O      106.259    -568.877     -50.680
  H      106.486    -563.807     -46.158
  H      107.217    -567.885     -52.869
  H      102.180    -557.314     -48.697
  H      102.331    -563.685     -49.546
  H      105.709    -561.959     -49.016
  H      104.464    -562.899     -46.644
  H      104.353    -556.552     -48.216
  H      103.568    -564.882     -47.742
  H      105.638    -557.701     -48.076
  H      106.345    -565.200     -48.989
  H      104.654    -567.084     -49.226
  H      103.605    -566.000     -50.107
  P      104.275    -566.294     -45.627
  C      103.424    -568.317     -47.029
  O      103.126    -567.060     -46.435
  O      103.535    -565.012     -45.023
  O      104.966    -567.082     -44.575
  H      103.318    -565.159     -44.084
  H      102.491    -568.765     -47.388
  H      103.883    -568.987     -46.298
  H      104.098    -568.168     -47.881
  H      102.554    -568.433     -53.415
  H      104.175    -568.322     -54.058
  H      103.454    -566.942     -53.265

 3  4  5  6  7  8  9  10  11  12  23  26  30  31 0
 6-311+G(2d,p)
 ****
 33  35  36  37  38 0
 6-311+G(2d,p)
 ****
 1  2  13  14  15  16  17  18  19  20  21  22  24  25 0
 3-21G
 ****
 27  28  29  32  34  39  40  41  42  43  44  45  46  47  48  49 0
 3-21G
 ****


