%nproc=1
%NoSave
%Mem=1900MB
#P OB98/GEN NMR

erre ene a

0 1
  C     -280.422    -374.563     341.803
  O     -281.821    -374.744     341.954
  P     -282.780    -374.168     340.795
  C     -284.307    -376.243     340.490
  O     -284.192    -374.901     340.962
  C     -285.571    -376.892     341.062
  O     -285.375    -377.273     342.445
  C     -286.800    -375.982     341.070
  O     -287.437    -375.940     339.788
  C     -287.683    -376.687     342.088
  O     -288.344    -377.804     341.467
  C     -286.655    -377.181     343.120
  N     -289.071    -375.323     347.167
  C     -289.419    -376.367     346.336
  N     -290.616    -376.967     346.570
  N     -288.677    -376.795     345.340
  C     -287.510    -376.099     345.213
  C     -287.056    -375.048     345.989
  C     -287.907    -374.583     347.056
  O     -287.674    -373.637     347.808
  N     -285.828    -374.608     345.566
  C     -285.548    -375.390     344.534
  N     -286.561    -376.273     344.268
  O     -282.174    -374.811     339.455
  O     -282.841    -372.668     340.722
  H     -288.804    -377.454     340.672
  H     -282.503    -374.315     338.672
  H     -289.694    -375.034     347.904
  H     -284.625    -375.338     343.952
  H     -286.898    -378.175     343.491
  H     -288.455    -376.033     342.484
  H     -291.271    -376.652     347.271
  H     -286.559    -374.978     341.430
  H     -290.925    -377.693     345.931
  H     -285.772    -377.818     340.485
  H     -283.430    -376.821     340.797
  H     -284.350    -376.237     339.392
  P     -287.524    -374.492     339.079
  C     -287.973    -375.754     336.853
  O     -288.383    -374.748     337.732
  O     -286.040    -374.265     338.552
  O     -287.992    -373.393     339.974
  H     -285.839    -373.304     338.463
  H     -288.794    -375.965     336.146
  H     -287.717    -376.683     337.382
  H     -287.102    -375.427     336.275
  H     -279.914    -374.993     342.641
  H     -280.201    -373.517     341.750
  H     -280.095    -375.043     340.904

 3  4  5  6  7  8  9  10  11  12  23  26  30  31 0
 6-311+G(2d,p)
 ****
 33  35  36  37  38 0
 6-311+G(2d,p)
 ****
 1  2  13  14  15  16  17  18  19  20  21  22  24  25 0
 3-21G
 ****
 27  28  29  32  34  39  40  41  42  43  44  45  46  47  48  49 0
 3-21G
 ****


