%nproc=1
%NoSave
%Mem=1900MB
#P OB98/GEN NMR

erre ene a

0 1
  C       43.318     171.989     -21.253
  O       43.696     170.989     -20.321
  P       42.732     169.723     -20.140
  C       42.347     167.558     -21.521
  O       42.678     168.939     -21.541
  C       41.520     167.179     -22.751
  O       40.164     167.676     -22.597
  C       42.068     167.754     -24.060
  O       41.814     166.830     -25.129
  C       41.203     168.973     -24.301
  O       41.182     169.336     -25.680
  C       39.863     168.485     -23.751
  N       37.130     172.341     -25.539
  C       37.686     171.273     -26.215
  N       37.568     171.286     -27.559
  N       38.297     170.281     -25.624
  C       38.344     170.407     -24.275
  C       37.816     171.409     -23.492
  C       37.153     172.508     -24.160
  O       36.666     173.496     -23.622
  N       38.034     171.172     -22.160
  C       38.729     170.053     -22.133
  N       38.973     169.570     -23.393
  O       41.282     170.391     -20.027
  O       43.028     168.881     -18.946
  H       40.950     168.530     -26.181
  H       40.977     170.364     -19.101
  H       36.679     173.088     -26.041
  H       39.099     169.567     -21.240
  H       39.341     167.847     -24.475
  H       41.587     169.825     -23.729
  H       37.169     172.053     -28.078
  H       43.137     167.996     -24.037
  H       38.007     170.538     -28.082
  H       41.456     166.085     -22.806
  H       41.769     167.343     -20.623
  H       43.266     166.962     -21.487
  P       42.752     166.977     -26.425
  C       45.319     166.741     -26.781
  O       44.256     166.964     -25.877
  O       42.522     168.494     -26.875
  O       42.446     166.005     -27.515
  H       42.700     168.593     -27.829
  H       45.953     167.631     -26.807
  H       44.966     166.526     -27.793
  H       45.912     165.893     -26.429
  H       44.055     172.765     -21.262
  H       42.371     172.400     -20.971
  H       43.242     171.557     -22.229

 3  4  5  6  7  8  9  10  11  12  23  26  30  31 0
 6-311+G(2d,p)
 ****
 33  35  36  37  38 0
 6-311+G(2d,p)
 ****
 1  2  13  14  15  16  17  18  19  20  21  22  24  25 0
 3-21G
 ****
 27  28  29  32  34  39  40  41  42  43  44  45  46  47  48  49 0
 3-21G
 ****


