%nproc=1
%NoSave
%Mem=1900MB
#P OB98/GEN NMR

erre ene a

0 1
  C      295.362     305.623      67.234
  O      295.460     304.933      68.464
  H      296.374     305.864      66.882
  H      294.815     306.559      67.377
  H      294.863     305.012      66.474
  P      294.159     304.218      69.056
  C      293.553     306.435      70.250
  O      293.113     305.396      69.382
  C      292.624     307.640      70.148
  O      292.577     308.074      68.754
  C      291.177     307.337      70.593
  O      290.630     308.508      71.205
  C      290.493     307.078      69.261
  O      289.100     307.216      69.344
  C      291.187     308.118      68.378
  N      290.980     307.843      66.960
  C      289.676     307.931      66.485
  O      288.710     308.224      67.186
  N      289.495     307.608      65.164
  C      290.448     307.101      64.329
  O      290.208     306.754      63.174
  C      291.803     306.979      64.902
  C      292.002     307.351      66.165
  O      294.388     303.264      70.191
  O      293.476     303.508      67.793
  H      288.876     308.046      69.801
  H      292.880     302.792      68.086
  H      288.552     307.677      64.798
  H      292.576     306.570      64.265
  H      292.982     307.253      66.622
  H      290.818     309.135      68.602
  H      290.712     306.064      68.913
  H      291.107     306.489      71.278
  H      293.043     308.469      70.729
  H      294.572     306.717      69.948
  H      293.584     306.058      71.282
  P      290.669     308.733      72.807
  C      288.458     307.646      73.538
  O      289.875     307.552      73.558
  O      290.271     310.104      73.232
  O      292.199     308.458      73.195
  H      292.501     309.158      73.804
  H      288.038     306.814      74.063
  H      288.114     307.638      72.525
  H      288.154     308.557      74.011

 6  7  8  9  10  11  12  13  14  15  16  26  31  32  33  34  35 0
 6-311+G(2d,p)
 ****
 36  37 0
 6-311+G(2d,p)
 ****
 1  2  3  4  5  17  18  19  20  21  22  23  24  25 0
 3-21G
 ****
 27  28  29  30  38  39  40  41  42  43  44  45 0
 3-21G
 ****


