%nproc=1
%NoSave
%Mem=1900MB
#P OB98/GEN NMR

erre ene a

0 1
  C      -62.579       4.079      16.776
  O      -62.635       4.345      15.387
  H      -63.334       4.689      17.279
  H      -61.593       4.339      17.172
  H      -62.794       3.024      16.964
  P      -61.574       3.572      14.465
  C      -59.873       5.331      13.616
  O      -60.213       4.404      14.639
  C      -60.722       6.594      13.736
  O      -60.745       7.052      15.099
  C      -60.224       7.767      12.900
  O      -60.686       7.655      11.563
  C      -60.884       8.936      13.618
  O      -62.254       9.056      13.190
  C      -60.833       8.500      15.094
  N      -59.439      10.674      19.532
  C      -60.655      10.414      19.004
  N      -60.952       9.886      17.797
  C      -59.831       9.606      17.110
  C      -58.523       9.818      17.519
  C      -58.343      10.375      18.797
  N      -57.101      10.640      19.331
  N      -57.632       9.413      16.547
  C      -58.390       8.910      15.594
  N      -59.728       9.035      15.869
  O      -62.008       3.305      13.063
  O      -61.295       2.266      15.350
  H      -62.655       8.169      13.274
  H      -61.236       2.499      16.293
  H      -61.503      10.668      19.634
  H      -58.020       8.425      14.696
  H      -61.749       8.774      15.628
  H      -60.398       9.889      13.403
  H      -59.135       7.877      12.959
  H      -61.754       6.333      13.464
  H      -60.024       4.876      12.629
  H      -57.067      11.211      20.161
  H      -56.295      10.537      18.731
  H      -58.811       5.573      13.727
  P      -59.862       8.298      10.345
  C      -60.967      10.296       9.163
  O      -60.287       9.844      10.328
  O      -60.001       7.571       9.054
  O      -58.353       8.346      10.872
  H      -57.741       8.471      10.121
  H      -61.198      11.336       9.266
  H      -61.873       9.740       9.040
  H      -60.342      10.153       8.307

 6  7  8  9  10  11  12  13  14  15  25  28  32  33  34  35 0
 6-311+G(2d,p)
 ****
 36  39  40 0
 6-311+G(2d,p)
 ****
 1  2  3  4  5  16  17  18  19  20  21  22  23  24 0
 3-21G
 ****
 26  27  29  30  31  37  38  41  42  43  44  45  46  47 0
 3-21G
 ****
 48 0
 3-21G
 ****


