%nproc=1
%NoSave
%Mem=1900MB
#P OB98/GEN NMR

erre ene a

0 1
  C     -408.800    -313.084    -651.946
  O     -409.184    -312.500    -653.171
  P     -408.829    -313.207    -654.560
  C     -410.862    -314.793    -654.396
  O     -409.446    -314.694    -654.448
  C     -411.409    -315.389    -655.707
  O     -410.984    -316.762    -655.844
  C     -412.924    -315.413    -655.775
  O     -413.441    -314.122    -656.075
  C     -413.151    -316.452    -656.884
  O     -413.012    -315.860    -658.179
  C     -412.008    -317.450    -656.609
  N     -412.461    -318.653    -655.919
  C     -412.771    -319.743    -656.744
  O     -412.690    -319.639    -657.960
  N     -413.229    -320.904    -656.161
  C     -413.364    -320.957    -654.861
  N     -413.830    -322.128    -654.354
  C     -413.082    -319.813    -653.965
  C     -412.632    -318.711    -654.564
  O     -407.393    -313.144    -654.952
  O     -409.818    -312.501    -655.598
  H     -413.329    -316.534    -658.816
  H     -409.511    -311.575    -655.811
  H     -413.219    -319.908    -652.888
  H     -412.394    -317.836    -653.970
  H     -411.521    -317.746    -657.542
  H     -414.139    -316.898    -656.831
  H     -413.341    -315.773    -654.832
  H     -410.998    -314.805    -656.531
  H     -414.049    -322.871    -655.006
  H     -411.276    -313.778    -654.253
  H     -414.008    -322.261    -653.358
  H     -411.166    -315.399    -653.536
  P     -414.916    -313.732    -655.614
  C     -414.005    -312.829    -653.373
  O     -414.931    -313.699    -654.017
  O     -416.018    -314.498    -656.241
  O     -415.037    -312.175    -655.992
  H     -415.900    -312.006    -656.415
  H     -414.321    -312.669    -652.352
  H     -413.944    -311.870    -653.903
  H     -413.007    -313.308    -653.366
  H     -409.127    -312.464    -651.137
  H     -407.735    -313.179    -651.915
  H     -409.247    -314.052    -651.857

 3  4  5  6  7  8  9  10  11  12  13  23  27  28  29  30  32 0
 6-311+G(2d,p)
 ****
 34  35 0
 6-311+G(2d,p)
 ****
 1  2  14  15  16  17  18  19  20  21  22  24  25  26 0
 3-21G
 ****
 31  33  36  37  38  39  40  41  42  43  44  45  46 0
 3-21G
 ****


