%nproc=1
%NoSave
%Mem=1900MB
#P OB98/GEN NMR

erre ene a

0 1
  C      -37.410    -178.481    -217.668
  O      -37.460    -179.694    -216.937
  H      -38.158    -178.522    -218.461
  H      -36.419    -178.363    -218.119
  H      -37.623    -177.639    -217.011
  P      -36.435    -179.839    -215.701
  C      -36.835    -182.411    -215.534
  O      -35.899    -181.350    -215.726
  C      -36.220    -183.727    -215.996
  O      -36.153    -183.755    -217.447
  C      -34.787    -183.944    -215.520
  O      -34.723    -184.368    -214.168
  C      -34.309    -184.994    -216.506
  O      -34.698    -186.309    -216.117
  C      -35.025    -184.595    -217.808
  N      -31.479    -185.124    -221.442
  C      -32.237    -186.026    -220.786
  N      -33.169    -185.793    -219.837
  C      -33.312    -184.483    -219.613
  C      -32.610    -183.446    -220.209
  C      -31.647    -183.795    -221.180
  N      -30.870    -182.890    -221.837
  N      -32.998    -182.235    -219.685
  C      -33.921    -182.523    -218.800
  N      -34.154    -183.869    -218.722
  O      -37.414    -179.803    -214.425
  O      -35.387    -178.782    -215.628
  H      -35.665    -186.285    -215.984
  H      -37.403    -178.911    -214.037
  H      -32.059    -187.060    -221.036
  H      -34.465    -181.796    -218.178
  H      -35.427    -185.459    -218.342
  H      -33.214    -184.980    -216.595
  H      -34.203    -183.019    -215.663
  H      -36.868    -184.558    -215.667
  H      -37.743    -182.207    -216.118
  H      -37.108    -182.456    -214.470
  H      -30.147    -183.226    -222.461
  H      -30.904    -181.919    -221.550
  P      -33.271    -184.597    -213.533
  C      -34.281    -185.913    -211.508
  O      -33.364    -185.906    -212.595
  O      -33.116    -183.387    -212.487
  O      -32.161    -184.631    -214.522
  H      -32.180    -183.095    -212.458
  H      -34.216    -186.848    -210.993
  H      -35.275    -185.779    -211.879
  H      -34.041    -185.117    -210.834

 6  7  8  9  10  11  12  13  14  15  25  28  32  33  34  35 0
 6-311+G(2d,p)
 ****
 36  37  40 0
 6-311+G(2d,p)
 ****
 1  2  3  4  5  16  17  18  19  20  21  22  23  24 0
 3-21G
 ****
 26  27  29  30  31  38  39 41  42  43  44  45  46  47  48 0
 3-21G
 ****


