%nproc=1
%NoSave
%Mem=1900MB
#P OB98/GEN NMR

erre ene a

0 1
  C     1253.098    -358.328    -635.359
  O     1251.819    -358.455    -634.761
  H     1253.799    -359.042    -634.911
  H     1253.011    -358.545    -636.428
  H     1253.480    -357.307    -635.241
  P     1251.727    -358.165    -633.191
  C     1249.349    -357.106    -633.271
  O     1250.160    -358.195    -632.831
  C     1247.971    -357.201    -632.640
  O     1247.244    -358.338    -633.211
  C     1247.974    -357.441    -631.134
  O     1248.170    -356.228    -630.410
  C     1246.567    -357.986    -630.928
  O     1245.619    -356.903    -630.968
  C     1246.411    -358.890    -632.145
  N     1244.968    -363.329    -630.032
  C     1244.383    -362.112    -630.078
  N     1244.806    -360.976    -630.647
  C     1246.024    -361.190    -631.231
  C     1246.752    -362.362    -631.260
  C     1246.181    -363.482    -630.614
  N     1246.793    -364.719    -630.555
  N     1247.972    -362.178    -631.910
  C     1247.936    -360.916    -632.308
  N     1246.795    -360.276    -631.913
  O     1252.105    -356.607    -633.062
  O     1252.584    -359.025    -632.307
  H     1245.764    -356.384    -630.146
  H     1252.395    -356.407    -632.152
  H     1243.405    -362.042    -629.576
  H     1248.725    -360.418    -632.860
  H     1245.374    -358.909    -632.533
  H     1246.453    -358.487    -629.958
  H     1248.708    -358.200    -630.846
  H     1247.403    -356.295    -632.893
  H     1249.266    -357.136    -634.364
  H     1246.379    -365.393    -629.913
  H     1247.744    -364.795    -630.858
  H     1249.833    -356.159    -632.977
  P     1248.851    -356.340    -628.960
  C     1250.703    -354.565    -629.449
  O     1249.535    -354.914    -628.686
  O     1250.096    -357.323    -629.214
  O     1247.940    -356.850    -627.887
  H     1250.334    -357.802    -628.398
  H     1251.042    -353.593    -629.157
  H     1250.460    -354.560    -630.491
  H     1251.476    -355.282    -629.267

 6  7  8  9  10  11  12  13  14  15  25  28  32  33  34  35 0
 6-311+G(2d,p)
 ****
 36  39  40 0
 6-311+G(2d,p)
 ****
 1  2  3  4  5  16  17  18  19  20  21  22  23  24 0
 3-21G
 ****
 26  27  29  30  31  37  38  41  42  43  44  45  46  47 0
 3-21G
 ****
 48 0
 3-21G
 ****


