%nproc=1
%NoSave
%Mem=1900MB
#P OB98/GEN NMR

erre ene a

0 1
  C      177.625      50.652    -194.740
  O      178.850      51.270    -195.069
  H      176.864      51.427    -194.624
  H      177.725      50.113    -193.794
  H      177.306      49.962    -195.524
  P      180.053      50.362    -195.608
  C      179.709      51.126    -198.049
  O      179.742      50.031    -197.146
  C      179.341      50.655    -199.462
  O      178.063      49.972    -199.412
  C      179.178      51.838    -200.422
  O      179.466      51.478    -201.770
  C      177.697      52.163    -200.304
  O      177.185      52.862    -201.438
  C      177.096      50.773    -200.112
  N      172.107      49.733    -200.188
  C      173.011      49.755    -201.232
  N      172.518      49.457    -202.458
  N      174.273      50.063    -201.092
  C      174.608      50.407    -199.827
  C      173.799      50.446    -198.714
  C      172.411      50.070    -198.875
  O      171.564      50.055    -197.988
  N      174.494      50.854    -197.603
  C      175.718      51.066    -198.042
  N      175.844      50.785    -199.380
  O      179.806      48.949    -194.895
  O      181.430      50.884    -195.334
  H      176.215      52.896    -201.346
  H      180.634      48.437    -194.863
  H      171.153      49.460    -200.345
  H      176.548      51.405    -197.434
  H      176.906      50.296    -201.082
  H      177.558      52.812    -199.436
  H      171.526      49.410    -202.634
  H      179.789      52.693    -200.145
  H      173.076      49.769    -203.257
  H      180.076      49.926    -199.818
  H      180.704      51.577    -198.041
  H      179.007      51.885    -197.700
  P      180.960      51.677    -202.313
  C      181.612      49.112    -202.324
  O      181.861      50.430    -201.888
  O      181.529      52.879    -201.428
  O      181.051      51.968    -203.778
  H      181.716      53.654    -201.988
  H      182.347      48.454    -201.909
  H      181.662      49.074    -203.392
  H      180.638      48.808    -202.002

 6  7  8  9  10  11  12  13  14  15  26  29  33  34 0
 6-311+G(2d,p)
 ****
 36  38  39  40  41 0
 6-311+G(2d,p)
 ****
 1  2  3  4  5  16  17  18  19  20  21  22  23  24  25 0
 3-21G
 ****
 27  28  30  31  32  35  37  42  43  44  45  46  47 0
 3-21G
 ****
 48  49 0
 3-21G
 ****


