%nproc=1
%NoSave
%Mem=1900MB
#P OB98/GEN NMR

erre ene a

0 1
  C      -91.497       1.815      -5.035
  O      -92.541       1.385      -4.187
  H      -90.597       1.963      -4.432
  H      -91.760       2.765      -5.506
  H      -91.284       1.067      -5.802
  P      -93.931       0.934      -4.844
  C      -94.865       3.250      -4.209
  O      -94.719       2.273      -5.233
  C      -94.780       4.650      -4.811
  O      -93.498       4.835      -5.451
  C      -95.817       4.917      -5.894
  O      -97.100       5.139      -5.344
  C      -95.198       6.115      -6.592
  O      -95.486       7.330      -5.890
  C      -93.690       5.788      -6.520
  N      -93.180       5.269      -7.789
  C      -93.013       6.197      -8.810
  O      -93.260       7.395      -8.687
  N      -92.607       5.689     -10.015
  C      -92.493       4.364     -10.321
  O      -92.370       3.946     -11.468
  C      -92.619       3.435      -9.189
  C      -92.964       3.921      -7.995
  O      -94.721      -0.064      -4.063
  O      -93.499       0.348      -6.271
  H      -93.504      -0.628      -6.232
  H      -96.463       7.393      -5.855
  H      -92.525       6.352     -10.774
  H      -92.465       2.380      -9.376
  H      -93.098       3.252      -7.150
  H      -93.116       6.685      -6.254
  H      -95.572       6.224      -7.612
  H      -95.847       4.075      -6.595
  H      -94.866       5.382      -3.999
  H      -94.058       3.118      -3.480
  H      -95.827       3.100      -3.707
  P      -98.262       4.055      -5.538
  C      -99.451       5.889      -6.888
  O      -99.161       4.499      -6.788
  O      -99.029       3.715      -4.304
  O      -97.495       2.763      -6.098
  H      -97.759       1.987      -5.569
  H     -100.053       6.066      -7.755
  H      -98.537       6.439      -6.970
  H      -99.981       6.207      -6.014

 6  7  8  9  10  11  12  13  14  15  16  27  31  32  33  34  35 0
 6-311+G(2d,p)
 ****
 36  37 0
 6-311+G(2d,p)
 ****
 1  2  3  4  5  17  18  19  20  21  22  23  24  25 0
 3-21G
 ****
 26  28  29  30  38  39  40  41  42  43  44  45 0
 3-21G
 ****


