%nproc=1
%NoSave
%Mem=1900MB
#P OB98/GEN NMR

erre ene a

0 1
  C     1260.695     482.597    -492.120
  O     1261.418     481.457    -491.696
  P     1260.685     480.084    -491.337
  C     1259.860     479.102    -489.094
  O     1260.096     480.286    -489.869
  C     1259.711     479.421    -487.605
  O     1261.048     479.768    -487.081
  C     1258.771     480.585    -487.262
  O     1258.188     480.226    -485.997
  C     1259.727     481.734    -487.127
  O     1259.140     482.827    -486.370
  C     1260.924     481.080    -486.454
  N     1262.146     481.866    -486.603
  C     1262.205     483.071    -485.896
  O     1261.242     483.451    -485.236
  N     1263.352     483.842    -485.988
  C     1264.294     483.470    -486.785
  N     1265.417     484.242    -486.808
  C     1264.230     482.277    -487.629
  C     1263.140     481.504    -487.493
  O     1261.506     478.858    -491.534
  O     1259.365     480.116    -492.239
  H     1259.773     483.561    -486.344
  H     1259.577     479.876    -493.181
  H     1265.040     482.028    -488.321
  H     1262.987     480.601    -488.066
  H     1260.749     480.902    -485.376
  H     1259.981     482.132    -488.112
  H     1257.991     480.721    -488.017
  H     1259.407     478.497    -487.085
  H     1265.426     485.053    -486.184
  H     1260.686     478.414    -489.250
  H     1266.257     484.018    -487.345
  H     1258.943     478.602    -489.477
  P     1256.625     480.528    -485.708
  C     1255.607     482.151    -484.030
  O     1256.556     481.999    -485.056
  O     1255.918     479.464    -484.926
  O     1255.971     480.741    -487.179
  H     1254.998     480.679    -487.090
  H     1255.833     483.115    -483.487
  H     1255.625     481.347    -483.323
  H     1254.578     482.234    -484.441
  H     1261.375     483.402    -492.307
  H     1260.003     482.885    -491.356
  H     1260.160     482.367    -493.018

 3  4  5  6  7  8  9  10  11  12  13  23  27  28  29  30  32 0
 6-311+G(2d,p)
 ****
 34  35 0
 6-311+G(2d,p)
 ****
 1  2  14  15  16  17  18  19  20  21  22  24  25  26 0
 3-21G
 ****
 31  33  36  37  38  39  40  41  42  43  44  45  46 0
 3-21G
 ****


