%nproc=1
%NoSave
%Mem=1900MB
#P OB98/GEN NMR

erre ene a

0 1
  C      273.775    -795.701      90.025
  O      274.511    -795.517      91.220
  H      274.357    -795.349      89.170
  H      273.579    -796.771      89.897
  H      272.823    -795.171      90.081
  P      274.919    -794.000      91.574
  C      274.724    -794.486      94.115
  O      275.550    -794.021      93.057
  C      275.555    -794.773      95.345
  O      276.269    -796.023      95.149
  C      276.603    -793.685      95.678
  O      276.511    -793.284      97.054
  C      277.940    -794.371      95.453
  O      278.951    -793.921      96.346
  C      277.600    -795.836      95.664
  N      280.453    -800.030      96.213
  C      279.366    -799.595      96.875
  N      278.587    -798.521      96.631
  C      279.028    -797.887      95.528
  C      280.103    -798.209      94.726
  C      280.857    -799.335      95.124
  N      281.999    -799.727      94.469
  N      280.256    -797.297      93.685
  C      279.305    -796.420      93.884
  N      278.536    -796.713      94.984
  O      273.500    -793.280      91.779
  O      275.733    -793.320      90.535
  H      278.677    -794.166      97.251
  H      273.415    -792.566      91.116
  H      279.073    -800.188      97.746
  H      279.133    -795.527      93.291
  H      277.582    -796.104      96.725
  H      278.284    -794.182      94.421
  H      276.494    -792.798      95.030
  H      274.889    -794.924      96.209
  H      274.217    -795.411      93.796
  H      282.546    -800.478      94.894
  H      282.378    -799.163      93.732
  H      273.959    -793.727      94.328
  P      275.855    -791.845      97.334
  C      275.158    -792.688      99.692
  O      275.763    -791.654      98.922
  O      274.333    -792.044      96.875
  O      276.509    -790.720      96.582
  H      274.096    -791.379      96.195
  H      275.171    -792.416     100.727
  H      275.702    -793.599      99.555
  H      274.146    -792.825      99.372

 6  7  8  9  10  11  12  13  14  15  25  28  32  33  34  35 0
 6-311+G(2d,p)
 ****
 36  39  40 0
 6-311+G(2d,p)
 ****
 1  2  3  4  5  16  17  18  19  20  21  22  23  24 0
 3-21G
 ****
 26  27  29  30  31  37  38  41  42  43  44  45  46  47  48 0
 3-21G
 ****


