%nproc=1
%NoSave
%Mem=1900MB
#P OB98/GEN NMR

erre ene a

0 1
  C     -530.450    -158.621      64.619
  O     -531.801    -158.710      65.034
  H     -529.781    -158.808      65.461
  H     -530.272    -159.373      63.847
  H     -530.255    -157.629      64.200
  P     -532.236    -157.752      66.246
  C     -532.920    -159.046      68.386
  O     -531.853    -158.527      67.599
  C     -533.375    -160.393      67.831
  O     -532.239    -161.254      67.614
  C     -534.300    -161.179      68.751
  O     -535.636    -160.697      68.697
  C     -534.176    -162.571      68.146
  O     -535.029    -162.673      66.992
  C     -532.706    -162.619      67.722
  N     -530.896    -167.219      69.144
  C     -531.748    -166.850      68.159
  N     -532.190    -165.614      67.846
  C     -531.656    -164.691      68.661
  C     -530.773    -164.918      69.711
  C     -530.392    -166.251      69.949
  N     -529.542    -166.615      70.971
  N     -530.426    -163.726      70.320
  C     -531.086    -162.802      69.655
  N     -531.846    -163.335      68.649
  O     -533.838    -157.821      66.216
  O     -531.750    -156.341      66.156
  H     -534.827    -163.525      66.563
  H     -534.194    -156.948      66.466
  H     -532.116    -167.656      67.532
  H     -531.033    -161.741      69.862
  H     -532.588    -163.076      66.729
  H     -534.471    -163.366      68.837
  H     -533.917    -161.200      69.781
  H     -533.852    -160.209      66.863
  H     -533.763    -158.348      68.365
  H     -529.158    -167.547      70.965
  H     -529.170    -165.882      71.560
  H     -532.570    -159.156      69.418
  P     -536.539    -160.867      70.021
  C     -538.456    -162.609      69.942
  O     -537.051    -162.381      70.005
  O     -537.851    -160.024      69.669
  O     -535.894    -160.400      71.287
  H     -538.276    -159.717      70.501
  H     -538.647    -163.662      69.938
  H     -538.848    -162.172      69.047
  H     -538.928    -162.164      70.793

 6  7  8  9  10  11  12  13  14  15  25  28  32  33  34  35 0
 6-311+G(2d,p)
 ****
 36  39  40 0
 6-311+G(2d,p)
 ****
 1  2  3  4  5  16  17  18  19  20  21  22  23  24 0
 3-21G
 ****
 26  27  29  30  31  37  38  41  42  43  44  45  46  47  48 0
 3-21G
 ****


