%nproc=1
%NoSave
%Mem=1900MB
#P OB98/GEN NMR

erre ene a

0 1
  C       35.249      19.588     218.132
  O       34.140      18.739     217.921
  H       36.079      19.300     217.482
  H       34.954      20.614     217.898
  H       35.563      19.541     219.180
  P       34.401      17.167     218.110
  C       32.487      16.652     216.440
  O       33.850      16.451     216.784
  C       32.089      15.725     215.299
  O       32.863      16.025     214.119
  C       32.325      14.243     215.568
  O       31.307      13.683     216.386
  C       32.276      13.688     214.152
  O       30.905      13.529     213.742
  C       32.941      14.805     213.335
  N       36.211      11.705     210.871
  C       34.863      11.681     210.992
  N       34.063      12.529     211.669
  C       34.785      13.498     212.258
  C       36.161      13.651     212.223
  C       36.888      12.694     211.495
  N       38.262      12.717     211.392
  N       36.546      14.769     212.929
  C       35.423      15.286     213.386
  N       34.331      14.548     213.011
  O       33.334      16.742     219.228
  O       35.790      16.793     218.511
  H       30.484      14.406     213.826
  H       33.727      16.053     219.796
  H       34.358      10.872     210.469
  H       35.352      16.187     213.982
  H       32.404      14.995     212.399
  H       32.762      12.715     214.055
  H       33.322      14.070     215.991
  H       31.033      15.913     215.064
  H       32.341      17.691     216.125
  H       38.705      12.131     210.704
  H       38.762      13.468     211.857
  H       31.869      16.458     217.322
  P       31.751      12.585     217.471
  C       29.252      11.901     217.619
  O       30.599      11.469     217.451
  O       31.511      13.335     218.865
  O       33.151      12.092     217.339
  H       32.091      12.955     219.552
  H       28.599      11.054     217.584
  H       28.995      12.582     216.835
  H       29.150      12.391     218.565

 6  7  8  9  10  11  12  13  14  15  25  28  32  33  34  35 0
 6-311+G(2d,p)
 ****
 36  39  40 0
 6-311+G(2d,p)
 ****
 1  2  3  4  5  16  17  18  19  20  21  22  23  24 0
 3-21G
 ****
 26  27  29  30  31  37  38  41  42  43  44  45  46  47  48 0
 3-21G
 ****


