%nproc=1
%NoSave
%Mem=1900MB
#P OB98/GEN NMR

erre ene a

0 1
  C       19.856    -191.312      13.027
  O       18.939    -190.961      11.987
  P       18.296    -192.186      11.167
  C       16.295    -193.228      12.442
  O       16.729    -192.244      11.517
  C       14.782    -193.154      12.674
  O       14.401    -191.864      13.248
  C       13.948    -193.337      11.397
  O       12.752    -194.028      11.774
  C       13.602    -191.909      11.016
  O       12.490    -191.861      10.121
  C       13.355    -191.320      12.409
  N       10.474    -187.179      12.231
  C       10.131    -188.503      12.069
  N        8.822    -188.775      11.886
  N       10.998    -189.483      12.091
  C       12.271    -189.073      12.323
  C       12.733    -187.787      12.510
  C       11.766    -186.709      12.454
  O       12.014    -185.517      12.593
  N       14.089    -187.769      12.756
  C       14.444    -189.040      12.641
  N       13.373    -189.871      12.439
  O       18.901    -193.471      11.904
  O       18.626    -192.173       9.710
  H       11.722    -192.262      10.587
  H       19.645    -193.837      11.388
  H        9.765    -186.461      12.185
  H       15.453    -189.412      12.722
  H       12.386    -191.625      12.824
  H       14.458    -191.424      10.533
  H        8.092    -188.071      11.909
  H       14.464    -193.876      10.596
  H        8.536    -189.745      11.807
  H       14.506    -193.928      13.406
  H       16.809    -193.097      13.400
  H       16.589    -194.218      12.076
  P       12.514    -195.499      11.181
  C       13.787    -196.972      12.891
  O       12.533    -196.517      12.421
  O       13.894    -195.806      10.422
  O       11.351    -195.620      10.251
  H       13.705    -196.291       9.594
  H       13.691    -197.241      13.948
  H       14.561    -196.201      12.797
  H       14.094    -197.859      12.327
  H       20.217    -190.422      13.500
  H       20.679    -191.853      12.609
  H       19.358    -191.923      13.750

 3  4  5  6  7  8  9  10  11  12  23  26  30  31 0
 6-311+G(2d,p)
 ****
 33  35  36  37  38 0
 6-311+G(2d,p)
 ****
 1  2  13  14  15  16  17  18  19  20  21  22  24  25 0
 3-21G
 ****
 27  28  29  32  34  39  40  41  42  43  44  45  46  47  48  49 0
 3-21G
 ****


