%nproc=1
%NoSave
%Mem=1900MB
#P OB98/GEN NMR

erre ene a

0 1
  C      369.224    -326.586    -621.190
  O      370.390    -325.775    -621.263
  P      370.449    -324.279    -620.666
  C      372.057    -324.928    -618.744
  O      371.842    -324.093    -619.885
  C      373.544    -325.245    -618.539
  O      373.998    -326.245    -619.484
  C      374.476    -324.034    -618.743
  O      374.458    -323.192    -617.613
  C      375.805    -324.740    -619.012
  O      376.420    -325.146    -617.784
  C      375.361    -325.964    -619.819
  N      378.507    -326.419    -623.839
  C      378.649    -326.729    -622.539
  N      377.778    -326.584    -621.523
  C      376.617    -326.060    -621.983
  C      376.318    -325.698    -623.277
  C      377.322    -325.898    -624.243
  N      377.172    -325.565    -625.575
  N      375.040    -325.176    -623.364
  C      374.564    -325.243    -622.130
  N      375.488    -325.784    -621.259
  O      369.241    -323.905    -619.848
  O      370.602    -323.325    -621.940
  H      376.649    -324.332    -617.290
  H      370.205    -322.451    -621.738
  H      379.618    -327.165    -622.253
  H      373.577    -324.939    -621.828
  H      375.940    -326.865    -619.567
  H      376.524    -324.093    -619.540
  H      374.172    -323.468    -619.635
  H      373.663    -325.658    -617.527
  H      371.511    -325.862    -618.895
  H      377.954    -325.705    -626.188
  H      376.304    -325.120    -625.881
  H      371.669    -324.410    -617.861
  P      375.165    -321.757    -617.657
  C      372.929    -320.544    -617.236
  O      374.258    -320.769    -616.780
  O      375.521    -321.255    -619.022
  O      376.478    -321.941    -616.742
  H      377.171    -321.338    -617.077
  H      372.948    -319.821    -618.053
  H      372.329    -320.140    -616.406
  H      372.482    -321.491    -617.576
  H      369.419    -327.533    -621.649
  H      368.419    -326.100    -621.701
  H      368.957    -326.735    -620.165

 3  4  5  6  7  8  9  10  11  12  22  25  29  30  31  32 0
 6-311+G(2d,p)
 ****
 33  36  37 0
 6-311+G(2d,p)
 ****
 1  2  13  14  15  16  17  18  19  20  21  23  24  26 0
 3-21G
 ****
 27  28  34  35  38  39  40  41  42  43  44  45  46  47  48 0
 3-21G
 ****


