%nproc=1
%NoSave
%Mem=1900MB
#P OB98/GEN NMR

erre ene a

0 1
  C     -501.277      -7.344    -157.913
  O     -502.546      -7.223    -158.554
  P     -502.769      -6.702    -160.048
  C     -504.900      -5.173    -160.010
  O     -504.336      -6.451    -160.262
  C     -506.438      -5.138    -160.135
  O     -506.816      -5.472    -161.493
  C     -507.055      -6.218    -159.238
  O     -507.278      -5.962    -157.858
  C     -508.295      -6.676    -159.993
  O     -509.480      -5.970    -159.573
  C     -507.968      -6.337    -161.444
  N     -509.943     -10.559    -163.577
  C     -510.541      -9.647    -162.730
  N     -511.816      -9.916    -162.352
  N     -509.930      -8.583    -162.268
  C     -508.639      -8.481    -162.653
  C     -507.923      -9.332    -163.473
  C     -508.620     -10.471    -164.014
  O     -508.143     -11.306    -164.786
  N     -506.634      -8.917    -163.621
  C     -506.552      -7.831    -162.862
  N     -507.752      -7.526    -162.256
  O     -502.053      -7.467    -161.109
  O     -502.145      -5.210    -160.013
  H     -509.714      -6.285    -158.688
  H     -501.775      -5.047    -160.900
  H     -510.454     -11.353    -163.914
  H     -505.651      -7.243    -162.732
  H     -508.790      -5.776    -161.926
  H     -508.491      -7.732    -159.813
  H     -512.288     -10.773    -162.577
  H     -506.379      -7.090    -159.245
  H     -512.179      -9.370    -161.568
  H     -506.831      -4.133    -159.942
  H     -504.445      -4.472    -160.736
  H     -504.600      -4.814    -159.021
  P     -506.232      -6.174    -156.672
  C     -507.639      -6.983    -154.694
  O     -506.988      -5.882    -155.291
  O     -505.228      -4.912    -156.808
  O     -505.457      -7.449    -156.726
  H     -504.418      -5.066    -156.300
  H     -508.354      -6.602    -153.952
  H     -506.909      -7.607    -154.199
  H     -508.184      -7.566    -155.438
  H     -501.414      -7.716    -156.919
  H     -500.804      -6.385    -157.873
  H     -500.661      -8.022    -158.466

 3  4  5  6  7  8  9  10  11  12  23  26  30  31 0
 6-311+G(2d,p)
 ****
 33  35  36  37  38 0
 6-311+G(2d,p)
 ****
 1  2  13  14  15  16  17  18  19  20  21  22  24  25 0
 3-21G
 ****
 27  28  29  32  34  39  40  41  42  43  44  45  46  47  48  49 0
 3-21G
 ****


