%nproc=1
%NoSave
%Mem=1900MB
#P OB98/GEN NMR

erre ene a

0 1
  C       76.535    -253.790    -539.848
  O       75.967    -252.594    -540.340
  H       77.624    -253.683    -539.837
  H       76.271    -254.630    -540.496
  H       76.191    -253.984    -538.828
  P       74.366    -252.560    -540.455
  C       74.160    -250.206    -539.388
  O       73.853    -251.588    -539.286
  C       74.430    -249.614    -538.006
  O       75.705    -250.072    -537.493
  C       74.469    -248.090    -537.971
  O       73.164    -247.547    -537.883
  C       75.289    -247.844    -536.706
  O       74.482    -247.963    -535.520
  C       76.331    -248.973    -536.778
  N       80.442    -246.068    -536.406
  C       79.401    -246.255    -535.517
  N       79.433    -245.518    -534.388
  N       78.409    -247.082    -535.724
  C       78.491    -247.729    -536.914
  C       79.484    -247.641    -537.867
  C       80.587    -246.743    -537.610
  O       81.573    -246.581    -538.324
  N       79.221    -248.466    -538.932
  C       78.061    -249.022    -538.638
  N       77.570    -248.592    -537.434
  O       73.922    -254.013    -539.945
  O       73.828    -252.271    -541.815
  H       73.808    -247.266    -535.522
  H       73.101    -254.273    -540.401
  H       81.188    -245.431    -536.181
  H       77.540    -249.736    -539.262
  H       76.601    -249.347    -535.781
  H       75.719    -246.841    -536.699
  H       79.961    -244.656    -534.334
  H       75.009    -247.694    -538.841
  H       78.663    -245.632    -533.743
  H       73.655    -249.994    -537.330
  H       73.314    -249.683    -539.842
  H       75.043    -250.079    -540.029
  P       72.648    -246.651    -539.116
  C       70.595    -248.087    -539.807
  O       71.910    -247.650    -540.124
  O       74.000    -246.275    -539.890
  O       71.873    -245.438    -538.719
  H       73.843    -245.518    -540.487
  H       70.243    -248.745    -540.574
  H       69.945    -247.240    -539.738
  H       70.607    -248.605    -538.871

 6  7  8  9  10  11  12  13  14  15  26  29  33  34 0
 6-311+G(2d,p)
 ****
 36  38  39  40  41 0
 6-311+G(2d,p)
 ****
 1  2  3  4  5  16  17  18  19  20  21  22  23  24  25 0
 3-21G
 ****
 27  28  30  31  32  35  37  42  43  44  45  46  47 0
 3-21G
 ****
 48  49 0
 3-21G
 ****


