%nproc=1
%NoSave
%Mem=1900MB
#P OB98/GEN NMR

erre ene a

0 1
  C      175.684     271.589    -360.162
  O      175.481     270.190    -360.203
  H      174.934     272.070    -360.794
  H      176.677     271.843    -360.543
  H      175.573     271.963    -359.140
  P      176.466     269.255    -359.352
  C      175.315     269.743    -357.091
  O      175.620     268.767    -358.079
  C      174.144     269.277    -356.240
  O      172.989     269.033    -357.064
  C      174.409     267.980    -355.472
  O      175.150     268.246    -354.294
  C      172.985     267.527    -355.198
  O      172.428     268.300    -354.120
  C      172.287     267.879    -356.521
  N      170.762     263.173    -357.631
  C      170.599     263.912    -356.472
  N      169.977     263.282    -355.449
  N      171.026     265.136    -356.325
  C      171.689     265.606    -357.408
  C      171.927     264.968    -358.600
  C      171.399     263.629    -358.777
  O      171.508     262.950    -359.789
  N      172.692     265.738    -359.440
  C      172.881     266.857    -358.764
  N      172.305     266.820    -357.518
  O      177.800     269.844    -359.002
  O      176.605     267.932    -360.234
  H      172.651     269.231    -354.298
  H      177.376     267.983    -360.830
  H      170.428     262.225    -357.678
  H      173.425     267.719    -359.133
  H      171.239     268.166    -356.376
  H      172.915     266.476    -354.914
  H      169.893     262.274    -355.414
  H      174.898     267.229    -356.103
  H      169.892     263.787    -354.576
  H      173.881     270.091    -355.551
  H      175.068     270.675    -357.612
  H      176.187     269.921    -356.453
  P      176.351     267.282    -353.838
  C      178.342     268.551    -354.890
  O      177.624     268.243    -353.700
  O      176.565     266.089    -354.708
  O      176.023     266.920    -352.317
  H      175.449     266.126    -352.218
  H      179.162     269.197    -354.655
  H      177.690     269.040    -355.583
  H      178.714     267.647    -355.326

 6  7  8  9  10  11  12  13  14  15  26  29  33  34 0
 6-311+G(2d,p)
 ****
 36  38  39  40  41 0
 6-311+G(2d,p)
 ****
 1  2  3  4  5  16  17  18  19  20  21  22  23  24  25 0
 3-21G
 ****
 27  28  30  31  32  35  37  42  43  44  45  46  47 0
 3-21G
 ****
 48  49 0
 3-21G
 ****


