%nproc=1
%NoSave
%Mem=1900MB
#P OB98/GEN NMR

erre ene a

0 1
  C      -55.293      66.034     140.430
  O      -54.134      65.903     139.601
  P      -54.376      65.885     138.012
  C      -54.307      63.297     137.876
  O      -55.052      64.481     137.622
  C      -54.563      62.232     136.801
  O      -55.971      61.861     136.762
  C      -54.183      62.682     135.386
  O      -53.715      61.532     134.673
  C      -55.513      63.112     134.797
  O      -55.470      63.142     133.371
  C      -56.437      62.063     135.410
  N      -61.156      60.761     133.957
  C      -59.967      60.137     133.827
  N      -58.744      60.562     134.226
  C      -58.843      61.749     134.850
  C      -59.985      62.509     135.052
  C      -61.189      61.970     134.570
  N      -62.400      62.616     134.679
  N      -59.674      63.696     135.693
  C      -58.367      63.649     135.869
  N      -57.826      62.481     135.404
  O      -52.892      65.764     137.419
  O      -55.075      67.097     137.493
  H      -55.368      62.220     133.049
  H      -52.627      66.613     137.015
  H      -59.994      59.169     133.335
  H      -57.769      64.429     136.314
  H      -56.384      61.099     134.884
  H      -55.772      64.118     135.153
  H      -53.431      63.475     135.346
  H      -53.994      61.331     137.065
  H      -54.577      62.888     138.855
  H      -63.213      62.175     134.284
  H      -62.430      63.537     135.090
  H      -53.242      63.549     137.939
  P      -52.126      61.311     134.633
  C      -51.593      61.788     132.140
  O      -51.571      62.263     133.471
  O      -51.964      59.834     134.029
  O      -51.456      61.448     135.964
  H      -51.119      59.444     134.321
  H      -51.892      62.606     131.477
  H      -52.293      60.958     132.007
  H      -50.590      61.456     131.861
  H      -54.998      66.033     141.458
  H      -55.956      65.214     140.248
  H      -55.792      66.953     140.203

 3  4  5  6  7  8  9  10  11  12  22  25  29  30  31  32 0
 6-311+G(2d,p)
 ****
 33  36  37 0
 6-311+G(2d,p)
 ****
 1  2  13  14  15  16  17  18  19  20  21  23  24  26 0
 3-21G
 ****
 27  28  34  35  38  39  40  41  42  43  44  45  46  47  48 0
 3-21G
 ****


