%nproc=1
%NoSave
%Mem=1900MB
#P OB98/GEN NMR

erre ene a

0 1
  C      -13.619    -556.466    -188.270
  O      -12.692    -557.221    -189.054
  P      -13.150    -557.646    -190.529
  C      -15.180    -558.854    -191.599
  O      -14.469    -558.563    -190.408
  C      -16.657    -559.165    -191.312
  O      -16.786    -560.458    -190.645
  C      -17.345    -558.132    -190.420
  O      -18.715    -558.047    -190.826
  C      -17.285    -558.775    -189.044
  O      -18.248    -558.195    -188.157
  C      -17.518    -560.242    -189.415
  N      -17.941    -564.991    -187.565
  C      -18.529    -564.365    -188.615
  N      -18.382    -563.087    -189.030
  C      -17.481    -562.449    -188.253
  C      -16.815    -562.943    -187.150
  C      -17.076    -564.276    -186.802
  N      -16.501    -564.909    -185.716
  N      -16.011    -561.967    -186.589
  C      -16.203    -560.893    -187.340
  N      -17.058    -561.147    -188.381
  O      -12.016    -558.688    -190.980
  O      -13.248    -556.506    -191.488
  H      -19.142    -558.311    -188.558
  H      -11.439    -558.280    -191.656
  H      -19.218    -564.980    -189.203
  H      -15.760    -559.935    -187.174
  H      -18.580    -560.462    -189.595
  H      -16.287    -558.634    -188.611
  H      -16.880    -557.138    -190.431
  H      -17.188    -559.240    -192.273
  H      -14.728    -559.704    -192.116
  H      -16.763    -565.861    -185.521
  H      -15.894    -564.376    -185.117
  H      -15.082    -558.004    -192.297
  P      -19.128    -556.750    -191.682
  C      -21.317    -555.352    -191.646
  O      -20.354    -556.062    -190.901
  O      -19.822    -557.372    -192.993
  O      -17.992    -555.848    -192.025
  H      -19.753    -556.752    -193.732
  H      -22.307    -555.561    -191.223
  H      -21.317    -555.641    -192.700
  H      -21.119    -554.285    -191.563
  H      -13.187    -556.252    -187.315
  H      -14.517    -557.032    -188.136
  H      -13.847    -555.549    -188.772

 3  4  5  6  7  8  9  10  11  12  22  25  29  30  31  32 0
 6-311+G(2d,p)
 ****
 33  36  37 0
 6-311+G(2d,p)
 ****
 1  2  13  14  15  16  17  18  19  20  21  23  24  26 0
 3-21G
 ****
 27  28  34  35  38  39  40  41  42  43  44  45  46  47  48 0
 3-21G
 ****


