%nproc=1
%NoSave
%Mem=1900MB
#P OB98/GEN NMR

erre ene a

0 1
  C     -260.656     185.609     611.156
  O     -260.519     184.197     611.169
  P     -261.432     183.370     612.207
  C     -261.883     181.327     610.672
  O     -261.243     181.822     611.842
  C     -261.136     180.099     610.139
  O     -260.019     180.499     609.312
  C     -260.532     179.216     611.230
  O     -261.490     178.334     611.799
  C     -259.499     178.430     610.429
  O     -260.145     177.358     609.723
  C     -258.991     179.488     609.441
  N     -254.260     178.612     611.003
  C     -255.173     177.745     610.448
  N     -254.807     176.442     610.358
  N     -256.364     178.108     610.027
  C     -256.595     179.436     610.186
  C     -255.752     180.399     610.716
  C     -254.464     179.969     611.199
  O     -253.615     180.677     611.729
  N     -256.336     181.634     610.704
  C     -257.528     181.426     610.177
  N     -257.743     180.101     609.888
  O     -262.927     183.690     611.725
  O     -261.215     183.723     613.645
  H     -260.571     176.788     610.398
  H     -263.561     183.464     612.440
  H     -253.362     178.267     611.315
  H     -258.271     182.207     609.994
  H     -258.821     179.067     608.446
  H     -258.738     177.986     611.061
  H     -253.941     176.077     610.722
  H     -260.019     179.810     611.994
  H     -255.491     175.775     610.019
  H     -261.837     179.518     609.513
  H     -261.902     182.100     609.905
  H     -262.920     181.055     610.917
  P     -260.991     177.435     613.041
  C     -263.390     177.683     614.005
  O     -262.339     176.815     613.676
  O     -260.529     178.525     614.109
  O     -259.904     176.468     612.706
  H     -259.852     178.156     614.722
  H     -264.304     177.086     614.165
  H     -263.584     178.408     613.200
  H     -263.165     178.225     614.931
  H     -259.995     186.025     610.425
  H     -260.411     186.000     612.121
  H     -261.665     185.867     610.912

 3  4  5  6  7  8  9  10  11  12  23  26  30  31 0
 6-311+G(2d,p)
 ****
 33  35  36  37  38 0
 6-311+G(2d,p)
 ****
 1  2  13  14  15  16  17  18  19  20  21  22  24  25 0
 3-21G
 ****
 27  28  29  32  34  39  40  41  42  43  44  45  46  47  48  49 0
 3-21G
 ****


