%nproc=1
%NoSave
%Mem=1900MB
#P OB98/GEN NMR

erre ene a

0 1
  C     -184.382     749.855     138.832
  O     -185.266     750.539     137.957
  P     -185.740     752.012     138.390
  C     -185.682     752.889     135.947
  O     -186.474     752.627     137.096
  C     -186.571     753.290     134.775
  O     -187.222     752.126     134.214
  C     -187.696     754.250     135.124
  O     -187.256     755.593     135.183
  C     -188.636     754.050     133.946
  O     -188.150     754.782     132.809
  C     -188.511     752.540     133.691
  N     -193.012     750.226     132.955
  C     -192.247     750.982     132.139
  N     -191.061     751.577     132.418
  C     -190.703     751.355     133.697
  C     -191.395     750.632     134.645
  C     -192.606     750.040     134.236
  N     -193.367     749.243     135.058
  N     -190.713     750.626     135.846
  C     -189.625     751.317     135.612
  N     -189.560     751.774     134.329
  O     -184.362     752.821     138.457
  O     -186.495     752.081     139.672
  H     -187.879     755.665     133.132
  H     -184.462     753.604     139.036
  H     -192.627     751.132     131.135
  H     -188.839     751.506     136.346
  H     -188.525     752.298     132.624
  H     -189.645     754.397     134.143
  H     -188.200     753.948     136.050
  H     -185.932     753.715     133.990
  H     -185.126     751.986     135.677
  H     -194.113     748.709     134.637
  H     -192.965     748.938     135.941
  H     -184.970     753.689     136.169
  P     -187.562     756.399     136.536
  C     -185.597     758.036     136.047
  O     -186.981     757.877     136.290
  O     -186.535     755.761     137.584
  O     -188.984     756.313     136.991
  H     -186.876     755.859     138.492
  H     -185.433     759.020     135.599
  H     -185.229     757.279     135.357
  H     -185.046     757.978     136.987
  H     -184.150     748.893     138.424
  H     -184.848     749.734     139.787
  H     -183.481     750.422     138.944

 3  4  5  6  7  8  9  10  11  12  22  25  29  30  31  32 0
 6-311+G(2d,p)
 ****
 33  36  37 0
 6-311+G(2d,p)
 ****
 1  2  13  14  15  16  17  18  19  20  21  23  24  26 0
 3-21G
 ****
 27  28  34  35  38  39  40  41  42  43  44  45  46  47  48 0
 3-21G
 ****


