%nproc=1
%NoSave
%Mem=1900MB
#P OB98/GEN NMR

erre ene a

0 1
  C      391.974    -254.979     176.405
  O      391.067    -256.017     176.721
  H      392.332    -254.498     177.319
  H      392.830    -255.411     175.874
  H      391.494    -254.243     175.756
  P      389.751    -255.600     177.539
  C      390.500    -255.782     180.013
  O      390.242    -254.922     178.910
  C      391.218    -255.002     181.117
  O      392.549    -254.665     180.651
  C      390.521    -253.702     181.547
  O      390.230    -253.735     182.949
  C      391.559    -252.616     181.299
  O      391.596    -251.622     182.326
  C      392.867    -253.390     181.216
  N      395.714    -249.174     180.897
  C      395.147    -249.789     181.955
  N      394.492    -250.967     181.990
  C      394.474    -251.532     180.773
  C      395.027    -251.036     179.602
  C      395.654    -249.785     179.692
  N      396.185    -249.132     178.599
  N      394.793    -251.904     178.546
  C      394.077    -252.882     179.060
  N      393.837    -252.694     180.399
  O      389.149    -257.010     178.013
  O      388.749    -254.809     176.765
  H      390.682    -251.316     182.451
  H      388.194    -257.041     177.817
  H      395.224    -249.260     182.904
  H      393.669    -253.716     178.506
  H      393.314    -253.560     182.203
  H      391.330    -252.118     180.349
  H      389.603    -253.506     180.979
  H      391.343    -255.671     181.982
  H      391.135    -256.611     179.691
  H      396.518    -248.188     178.732
  H      396.049    -249.535     177.681
  H      389.554    -256.186     180.375
  P      388.818    -254.373     183.379
  C      387.688    -252.027     183.303
  O      387.665    -253.381     182.868
  O      388.795    -254.173     184.968
  O      388.659    -255.806     182.994
  H      388.239    -254.855     185.385
  H      386.859    -251.502     182.877
  H      388.601    -251.567     182.988
  H      387.621    -251.994     184.370

 6  7  8  9  10  11  12  13  14  15  25  28  32  33  34  35 0
 6-311+G(2d,p)
 ****
 36  39  40 0
 6-311+G(2d,p)
 ****
 1  2  3  4  5  16  17  18  19  20  21  22  23  24 0
 3-21G
 ****
 26  27  29  30  31  37  38  41  42  43  44  45  46  47  48 0
 3-21G
 ****


