%nproc=1
%NoSave
%Mem=1900MB
#P OB98/GEN NMR

erre ene a

0 1
  C     -107.517      27.356     293.724
  O     -107.517      28.695     293.266
  H     -106.906      26.753     293.052
  H     -108.537      26.960     293.728
  H     -107.098      27.298     294.736
  P     -108.287      29.771     294.169
  C     -109.270      31.085     292.157
  O     -108.403      31.109     293.287
  C     -108.757      32.025     291.067
  O     -108.557      33.350     291.633
  C     -107.415      31.593     290.439
  O     -107.445      31.953     289.050
  C     -106.413      32.487     291.137
  O     -105.197      32.632     290.404
  C     -107.230      33.773     291.264
  N     -107.134      38.601     292.693
  C     -107.857      37.972     291.691
  N     -108.682      38.751     290.958
  N     -107.780      36.693     291.441
  C     -106.946      36.035     292.277
  C     -106.170      36.530     293.294
  C     -106.243      37.957     293.544
  O     -105.616      38.573     294.404
  N     -105.423      35.536     293.889
  C     -105.756      34.442     293.221
  N     -106.670      34.692     292.240
  O     -107.195      30.148     295.282
  O     -109.568      29.300     294.783
  H     -104.631      33.291     290.880
  H     -107.316      29.591     296.074
  H     -107.228      39.589     292.827
  H     -105.349      33.455     293.420
  H     -107.298      34.321     290.319
  H     -106.164      32.081     292.127
  H     -108.833      39.740     291.126
  H     -107.196      30.528     290.538
  H     -109.259      38.303     290.252
  H     -109.536      32.119     290.296
  H     -110.270      31.413     292.472
  H     -109.335      30.061     291.774
  P     -107.496      30.768     287.963
  C     -105.646      31.479     286.259
  O     -107.040      31.380     286.540
  O     -109.072      30.542     287.756
  O     -106.805      29.517     288.383
  H     -109.236      29.621     287.492
  H     -105.507      31.901     285.285
  H     -105.205      30.504     286.292
  H     -105.179      32.106     286.989

 6  7  8  9  10  11  12  13  14  15  26  29  33  34 0
 6-311+G(2d,p)
 ****
 36  38  39  40  41 0
 6-311+G(2d,p)
 ****
 1  2  3  4  5  16  17  18  19  20  21  22  23  24  25 0
 3-21G
 ****
 27  28  30  31  32  35  37  42  43  44  45  46  47 0
 3-21G
 ****
 48  49 0
 3-21G
 ****


