%nproc=1
%NoSave
%Mem=1900MB
#P OB98/GEN NMR

erre ene a

0 1
  C      -36.716    -190.163    -303.794
  O      -36.137    -191.421    -303.512
  H      -36.551    -189.927    -304.848
  H      -36.249    -189.389    -303.181
  H      -37.792    -190.188    -303.602
  P      -36.365    -192.016    -302.041
  C      -33.875    -191.495    -301.484
  O      -34.916    -192.458    -301.505
  C      -32.524    -192.197    -301.332
  O      -32.557    -193.010    -300.127
  C      -32.187    -193.126    -302.503
  O      -30.780    -193.065    -302.757
  C      -32.556    -194.500    -301.974
  O      -31.878    -195.566    -302.626
  C      -32.181    -194.354    -300.496
  N      -32.856    -195.331    -299.645
  C      -32.367    -196.632    -299.651
  O      -31.364    -197.001    -300.263
  N      -33.085    -197.539    -298.913
  C      -34.224    -197.281    -298.208
  O      -34.834    -198.141    -297.584
  C      -34.696    -195.891    -298.246
  C      -34.004    -194.994    -298.952
  O      -37.094    -193.413    -302.317
  O      -37.129    -191.144    -301.103
  H      -38.063    -193.296    -302.325
  H      -31.936    -196.357    -302.050
  H      -32.741    -198.487    -298.906
  H      -35.603    -195.650    -297.706
  H      -34.333    -193.963    -299.012
  H      -31.095    -194.437    -300.366
  H      -33.633    -194.668    -302.085
  H      -32.738    -192.879    -303.413
  H      -31.744    -191.439    -301.189
  H      -34.027    -190.820    -300.637
  H      -33.899    -190.916    -302.412
  P      -30.305    -192.335    -304.106
  C      -29.140    -194.458    -305.087
  O      -29.005    -193.135    -304.604
  O      -29.731    -190.958    -303.534
  O      -31.400    -192.198    -305.112
  H      -29.275    -191.052    -302.681
  H      -28.180    -194.833    -305.373
  H      -29.792    -194.463    -305.936
  H      -29.551    -195.078    -304.318

 6  7  8  9  10  11  12  13  14  15  16  27  31  32  33  34  35 0
 6-311+G(2d,p)
 ****
 36  37 0
 6-311+G(2d,p)
 ****
 1  2  3  4  5  17  18  19  20  21  22  23  24  25 0
 3-21G
 ****
 26  28  29  30  38  39  40  41  42  43  44  45 0
 3-21G
 ****


