%nproc=1
%NoSave
%Mem=1900MB
#P OB98/GEN NMR

erre ene a

0 1
  C      520.260    -518.393    -409.469
  O      520.817    -517.851    -410.676
  P      522.412    -517.783    -410.804
  C      522.252    -518.063    -413.384
  O      522.774    -517.321    -412.293
  C      522.033    -517.151    -414.595
  O      520.846    -516.335    -414.445
  C      523.176    -516.172    -414.838
  O      524.242    -516.774    -415.557
  C      522.488    -515.131    -415.707
  O      522.420    -515.596    -417.068
  C      521.091    -515.060    -415.087
  N      521.310    -510.049    -414.403
  C      521.497    -510.805    -415.546
  N      521.780    -510.120    -416.681
  N      521.414    -512.112    -415.581
  C      521.111    -512.657    -414.382
  C      520.904    -512.018    -413.180
  C      521.010    -510.579    -413.153
  O      520.866    -509.862    -412.167
  N      520.620    -512.916    -412.184
  C      520.641    -514.091    -412.781
  N      520.948    -513.990    -414.115
  O      522.838    -519.331    -410.802
  O      523.087    -517.024    -409.709
  H      523.313    -515.916    -417.298
  H      523.740    -519.427    -410.445
  H      521.387    -509.050    -414.435
  H      520.435    -515.036    -412.294
  H      520.305    -514.912    -415.842
  H      523.034    -514.175    -415.729
  H      521.807    -509.110    -416.733
  H      523.521    -515.718    -413.895
  H      521.885    -510.650    -417.533
  H      521.908    -517.784    -415.483
  H      521.311    -518.540    -413.107
  H      522.941    -518.880    -413.622
  P      525.670    -516.889    -414.831
  C      525.680    -519.231    -415.954
  O      526.427    -518.109    -415.534
  O      525.285    -517.450    -413.383
  O      526.428    -515.605    -414.746
  H      525.919    -517.111    -412.718
  H      526.326    -519.880    -416.546
  H      524.825    -518.924    -416.567
  H      525.324    -519.792    -415.082
  H      519.192    -518.374    -409.529
  H      520.581    -517.807    -408.633
  H      520.592    -519.403    -409.345

 3  4  5  6  7  8  9  10  11  12  23  26  30  31 0
 6-311+G(2d,p)
 ****
 33  35  36  37  38 0
 6-311+G(2d,p)
 ****
 1  2  13  14  15  16  17  18  19  20  21  22  24  25 0
 3-21G
 ****
 27  28  29  32  34  39  40  41  42  43  44  45  46  47  48  49 0
 3-21G
 ****


