%nproc=1
%NoSave
%Mem=1900MB
#P OB98/GEN NMR

erre ene a

0 1
  C       72.864    -276.668     -47.686
  O       73.884    -276.870     -48.641
  H       72.804    -275.601     -47.458
  H       73.105    -277.208     -46.767
  H       71.894    -276.998     -48.067
  P       73.994    -278.293     -49.368
  C       75.279    -277.348     -51.393
  O       75.311    -278.234     -50.285
  C       76.025    -277.945     -52.591
  O       77.458    -277.880     -52.333
  C       75.677    -279.415     -52.872
  O       75.807    -279.622     -54.283
  C       76.780    -280.141     -52.129
  O       76.903    -281.477     -52.561
  C       77.970    -279.223     -52.416
  N       79.083    -279.446     -51.495
  C       80.228    -280.019     -52.033
  O       80.322    -280.362     -53.211
  N       81.261    -280.231     -51.162
  C       81.234    -279.988     -49.821
  O       82.178    -280.228     -49.079
  C       79.979    -279.422     -49.297
  C       78.977    -279.178     -50.146
  O       72.765    -278.757     -50.073
  O       74.428    -279.300     -48.201
  H       76.035    -281.931     -52.510
  H       74.078    -280.193     -48.382
  H       82.104    -280.635     -51.538
  H       79.922    -279.226     -48.235
  H       78.042    -278.762     -49.791
  H       78.342    -279.379     -53.438
  H       76.569    -280.166     -51.054
  H       74.676    -279.692     -52.535
  H       75.833    -277.319     -53.470
  H       75.757    -276.410     -51.090
  H       74.240    -277.144     -51.669
  P       74.558    -279.497     -55.283
  C       76.146    -278.802     -57.190
  O       75.085    -279.665     -56.790
  O       73.716    -278.283     -55.062
  O       73.705    -280.829     -55.038
  H       72.766    -280.658     -55.237
  H       76.408    -279.007     -58.207
  H       76.996    -278.967     -56.562
  H       75.830    -277.784     -57.102

 6  7  8  9  10  11  12  13  14  15  16  26  31  32  33  34  35 0
 6-311+G(2d,p)
 ****
 36  37 0
 6-311+G(2d,p)
 ****
 1  2  3  4  5  17  18  19  20  21  22  23  24  25 0
 3-21G
 ****
 27  28  29  30  38  39  40  41  42  43  44  45 0
 3-21G
 ****


