%nproc=1
%NoSave
%Mem=1900MB
#P OB98/GEN NMR

erre ene a

0 1
  C      570.037     -75.866    -920.425
  O      570.699     -74.655    -920.151
  H      568.966     -75.741    -920.221
  H      570.432     -76.659    -919.779
  H      570.160     -76.145    -921.480
  P      572.242     -74.549    -920.588
  C      573.986     -76.459    -920.321
  O      573.041     -75.615    -919.682
  C      574.205     -77.721    -919.500
  O      572.962     -78.436    -919.329
  C      575.189     -78.717    -920.117
  O      576.545     -78.358    -919.836
  C      574.790     -79.991    -919.395
  O      575.319     -79.981    -918.062
  C      573.252     -79.865    -919.352
  N      571.152     -84.113    -921.164
  C      571.761     -83.878    -919.948
  N      571.839     -84.901    -919.096
  N      572.258     -82.715    -919.597
  C      572.136     -81.759    -920.563
  C      571.553     -81.876    -921.800
  C      570.993     -83.154    -922.157
  O      570.424     -83.430    -923.224
  N      571.603     -80.706    -922.488
  C      572.223     -79.867    -921.672
  N      572.586     -80.470    -920.494
  O      572.709     -73.140    -919.997
  O      572.501     -74.642    -922.057
  H      576.287     -79.868    -918.140
  H      573.346     -72.722    -920.617
  H      570.799     -85.021    -921.383
  H      572.452     -78.827    -921.899
  H      572.820     -80.311    -918.456
  H      575.158     -80.886    -919.881
  H      571.512     -85.842    -919.323
  H      575.014     -78.832    -921.202
  H      572.252     -84.742    -918.182
  H      574.540     -77.426    -918.492
  H      574.948     -75.923    -920.431
  H      573.617     -76.715    -921.314
  P      577.693     -79.288    -920.461
  C      578.342     -81.794    -920.125
  O      577.703     -80.637    -919.592
  O      579.042     -78.541    -919.998
  O      577.617     -79.472    -921.944
  H      579.778     -78.785    -920.607
  H      578.260     -82.600    -919.427
  H      579.375     -81.581    -920.303
  H      577.871     -82.070    -921.045

 6  7  8  9  10  11  12  13  14  15  26  29  33  34 0
 6-311+G(2d,p)
 ****
 36  38  39  40  41 0
 6-311+G(2d,p)
 ****
 1  2  3  4  5  16  17  18  19  20  21  22  23  24  25 0
 3-21G
 ****
 27  28  30  31  32  35  37  42  43  44  45  46  47 0
 3-21G
 ****
 48  49 0
 3-21G
 ****


