%nproc=1
%NoSave
%Mem=1900MB
#P OB98/GEN NMR

erre ene a

0 1
  C     -112.442     227.941     560.423
  O     -112.646     227.637     561.787
  H     -111.531     228.534     560.325
  H     -113.284     228.524     560.035
  H     -112.330     227.022     559.838
  P     -113.891     226.691     562.141
  C     -115.041     228.058     564.022
  O     -114.227     226.937     563.691
  C     -114.918     228.391     565.509
  O     -114.996     227.160     566.279
  C     -113.595     229.083     565.895
  O     -113.878     230.015     566.946
  C     -112.778     227.946     566.479
  O     -111.737     228.405     567.336
  C     -113.880     227.154     567.183
  N     -111.556     224.363     570.672
  C     -111.878     225.708     570.666
  N     -111.527     226.421     571.757
  N     -112.494     226.295     569.675
  C     -112.814     225.458     568.670
  C     -112.550     224.114     568.546
  C     -111.848     223.477     569.637
  O     -111.518     222.297     569.691
  N     -113.015     223.621     567.348
  C     -113.561     224.671     566.753
  N     -113.461     225.802     567.510
  O     -113.236     225.227     562.124
  O     -115.060     226.790     561.211
  H     -111.270     229.145     566.877
  H     -113.345     224.821     561.245
  H     -111.074     223.965     571.451
  H     -114.022     224.653     565.774
  H     -114.193     227.622     568.124
  H     -112.321     227.355     565.677
  H     -111.094     226.020     572.578
  H     -113.097     229.596     565.069
  H     -111.792     227.397     571.792
  H     -115.777     229.008     565.795
  H     -116.084     227.813     563.794
  H     -114.732     228.914     563.417
  P     -114.612     231.390     566.551
  C     -113.364     233.148     568.026
  O     -114.541     232.373     567.827
  O     -116.159     230.974     566.515
  O     -114.164     231.980     565.256
  H     -116.640     231.550     565.894
  H     -113.474     233.743     568.908
  H     -113.211     233.787     567.182
  H     -112.523     232.496     568.138

 6  7  8  9  10  11  12  13  14  15  26  29  33  34 0
 6-311+G(2d,p)
 ****
 36  38  39  40  41 0
 6-311+G(2d,p)
 ****
 1  2  3  4  5  16  17  18  19  20  21  22  23  24  25 0
 3-21G
 ****
 27  28  30  31  32  35  37  42  43  44  45  46  47 0
 3-21G
 ****
 48  49 0
 3-21G
 ****


