%nproc=1
%NoSave
%Mem=1900MB
#P OB98/GEN NMR

erre ene a

0 1
  C     -124.174      54.099     294.733
  O     -125.144      53.958     293.698
  P     -125.629      55.126     292.729
  C     -127.597      55.970     294.259
  O     -126.363      56.244     293.605
  C     -128.370      57.266     294.549
  O     -129.521      56.946     295.386
  C     -127.525      58.294     295.313
  O     -127.690      59.628     294.843
  C     -127.890      58.018     296.762
  O     -127.596      59.101     297.635
  C     -129.363      57.626     296.651
  N     -130.356      57.276     301.647
  C     -129.747      58.298     300.945
  N     -129.335      59.363     301.660
  N     -129.548      58.270     299.653
  C     -129.938      57.117     299.070
  C     -130.536      56.028     299.659
  C     -130.801      56.087     301.079
  O     -131.352      55.220     301.748
  N     -130.799      55.044     298.739
  C     -130.342      55.527     297.604
  N     -129.814      56.790     297.749
  O     -126.316      54.694     291.478
  O     -124.257      55.859     292.297
  H     -126.631      59.124     297.763
  H     -124.398      56.192     291.390
  H     -130.505      57.361     302.637
  H     -130.376      55.017     296.646
  H     -130.020      58.497     296.649
  H     -127.291      57.163     297.098
  H     -129.343      59.394     302.669
  H     -126.456      58.104     295.170
  H     -128.697      60.001     301.180
  H     -128.740      57.674     293.601
  H     -127.333      55.474     295.200
  H     -128.198      55.273     293.671
  P     -126.671      60.525     294.003
  C     -124.821      60.790     295.759
  O     -125.183      60.220     294.516
  O     -126.923      62.023     294.504
  O     -126.843      60.441     292.522
  H     -127.228      62.574     293.756
  H     -123.736      60.740     295.865
  H     -125.284      60.223     296.573
  H     -125.137      61.836     295.813
  H     -124.040      53.159     295.226
  H     -124.510      54.828     295.440
  H     -123.244      54.416     294.309

 3  4  5  6  7  8  9  10  11  12  23  26  30  31 0
 6-311+G(2d,p)
 ****
 33  35  36  37  38 0
 6-311+G(2d,p)
 ****
 1  2  13  14  15  16  17  18  19  20  21  22  24  25 0
 3-21G
 ****
 27  28  29  32  34  39  40  41  42  43  44  45  46  47  48  49 0
 3-21G
 ****


