%nproc=1
%NoSave
%Mem=1900MB
#P OB98/GEN NMR

erre ene a

0 1
  C     -185.803     204.446    -235.555
  O     -187.153     204.858    -235.538
  H     -185.419     204.528    -236.575
  H     -185.735     203.400    -235.239
  H     -185.193     205.073    -234.898
  P     -187.823     205.114    -234.105
  C     -187.956     207.694    -234.347
  O     -188.675     206.476    -234.218
  C     -188.922     208.851    -234.599
  O     -189.569     208.657    -235.886
  C     -190.025     208.979    -233.539
  O     -190.270     210.372    -233.287
  C     -191.241     208.368    -234.214
  O     -192.474     208.864    -233.690
  C     -190.991     208.739    -235.674
  N     -192.220     207.938    -240.496
  C     -191.407     208.903    -239.929
  N     -190.840     209.795    -240.778
  N     -191.170     208.985    -238.647
  C     -191.775     208.008    -237.928
  C     -192.605     207.003    -238.372
  C     -192.885     206.943    -239.789
  O     -193.612     206.129    -240.351
  N     -193.049     206.227    -237.326
  C     -192.487     206.762    -236.259
  N     -191.698     207.842    -236.573
  O     -186.578     205.527    -233.187
  O     -188.566     203.954    -233.529
  H     -192.456     209.843    -233.779
  H     -186.446     204.859    -232.491
  H     -192.379     207.932    -241.494
  H     -192.621     206.421    -235.239
  H     -191.318     209.757    -235.907
  H     -191.225     207.278    -234.076
  H     -190.939     209.763    -241.776
  H     -189.779     208.482    -232.601
  H     -190.209     210.484    -240.383
  H     -188.342     209.782    -234.672
  H     -187.265     207.608    -235.194
  H     -187.387     207.877    -233.433
  P     -190.925     210.747    -231.867
  C     -189.893     213.115    -231.653
  O     -191.081     212.347    -231.796
  O     -189.752     210.430    -230.829
  O     -192.160     209.972    -231.553
  H     -189.964     209.630    -230.317
  H     -190.142     214.155    -231.620
  H     -189.246     212.930    -232.485
  H     -189.396     212.838    -230.747

 6  7  8  9  10  11  12  13  14  15  26  29  33  34 0
 6-311+G(2d,p)
 ****
 36  38  39  40  41 0
 6-311+G(2d,p)
 ****
 1  2  3  4  5  16  17  18  19  20  21  22  23  24  25 0
 3-21G
 ****
 27  28  30  31  32  35  37  42  43  44  45  46  47 0
 3-21G
 ****
 48  49 0
 3-21G
 ****


