%nproc=1
%NoSave
%Mem=1900MB
#P OB98/GEN NMR

erre ene a

0 1
  C     -178.435     133.970      78.826
  O     -178.066     133.132      77.745
  P     -176.868     132.088      77.959
  C     -175.246     133.239      76.241
  O     -176.002     132.100      76.609
  C     -175.275     133.431      74.724
  O     -174.529     134.634      74.385
  C     -174.665     132.273      73.923
  O     -175.421     132.147      72.711
  C     -173.261     132.773      73.625
  O     -172.671     132.121      72.509
  C     -173.528     134.267      73.414
  N     -172.335     135.098      73.566
  C     -171.335     134.993      72.603
  O     -171.390     134.221      71.643
  N     -170.239     135.789      72.793
  C     -170.012     136.612      73.859
  O     -169.001     137.292      73.986
  C     -171.081     136.651      74.869
  C     -172.178     135.913      74.673
  O     -177.657     130.698      77.906
  O     -176.085     132.320      79.206
  H     -178.397     130.706      77.273
  H     -171.781     132.503      72.373
  H     -169.518     135.756      72.086
  H     -170.934     137.282      75.739
  H     -172.976     135.923      75.408
  H     -173.967     134.434      72.421
  H     -172.619     132.600      74.498
  H     -174.683     131.327      74.473
  H     -176.316     133.601      74.417
  H     -174.208     133.104      76.564
  H     -175.646     134.121      76.756
  P     -175.685     130.669      72.130
  C     -173.655     130.825      70.483
  O     -175.037     130.605      70.667
  O     -177.259     130.766      71.820
  O     -175.345     129.556      73.067
  H     -177.498     131.568      71.327
  H     -173.360     130.419      69.512
  H     -173.065     130.339      71.260
  H     -173.453     131.901      70.489
  H     -179.243     134.604      78.526
  H     -177.598     134.571      79.113
  H     -178.743     133.368      79.655

 3  4  5  6  7  8  9  10  11  12  13  24  28  29  30  31  32 0
 6-311+G(2d,p)
 ****
 33  34 0
 6-311+G(2d,p)
 ****
 1  2  14  15  16  17  18  19  20  21  22  23  25  26  27 0
 3-21G
 ****
 35  36  37  38  39  40  41  42  43  44  45 0
 3-21G
 ****


