%nproc=1
%NoSave
%Mem=1900MB
#P OB98/GEN NMR

erre ene a

0 1
  C      124.379     342.857    -390.180
  O      125.034     343.754    -389.304
  H      124.903     342.860    -391.140
  H      123.345     343.178    -390.340
  H      124.398     341.839    -389.773
  P      124.538     343.764    -387.776
  C      122.414     344.755    -386.585
  O      123.154     344.582    -387.781
  C      121.509     345.984    -386.681
  O      122.346     347.166    -386.800
  C      120.566     345.965    -387.884
  O      119.328     346.580    -387.501
  C      121.268     346.838    -388.905
  O      120.368     347.379    -389.868
  C      121.942     347.878    -387.992
  N      123.080     348.535    -388.640
  C      123.047     349.927    -388.700
  O      122.091     350.551    -388.225
  N      124.081     350.595    -389.311
  C      125.028     349.916    -389.882
  N      126.008     350.628    -390.505
  C      125.076     348.439    -389.889
  C      124.093     347.817    -389.243
  O      125.573     344.778    -387.101
  O      124.479     342.419    -387.137
  H      120.868     347.977    -390.467
  H      125.735     345.581    -387.629
  H      125.887     347.916    -390.386
  H      124.050     346.736    -389.193
  H      121.225     348.649    -387.691
  H      122.027     346.259    -389.446
  H      120.375     344.948    -388.257
  H      120.952     346.086    -385.744
  H      125.922     351.645    -390.495
  H      123.092     344.867    -385.730
  H      126.765     350.215    -391.028
  H      121.810     343.852    -386.427
  P      118.164     345.682    -386.870
  C      116.294     344.076    -387.660
  O      117.379     344.920    -388.038
  O      117.297     346.369    -385.860
  O      118.985     344.483    -386.169
  H      118.563     344.301    -385.306
  H      115.864     343.634    -388.535
  H      115.552     344.655    -387.152
  H      116.652     343.305    -387.010

 6  7  8  9  10  11  12  13  14  15  16  26  30  31  32  33  35 0
 6-311+G(2d,p)
 ****
 37  38 0
 6-311+G(2d,p)
 ****
 1  2  3  4  5  17  18  19  20  21  22  23  24  25 0
 3-21G
 ****
 27  28  29  34  36  39  40  41  42  43  44  45  46 0
 3-21G
 ****


