%nproc=1
%NoSave
%Mem=1900MB
#P OB98/GEN NMR

erre ene a

0 1
  C     -106.863    -112.947     105.205
  O     -105.971    -112.196     105.997
  H     -107.876    -112.804     105.589
  H     -106.608    -114.008     105.274
  H     -106.836    -112.630     104.160
  P     -104.524    -111.851     105.411
  C     -103.417    -113.354     107.194
  O     -103.525    -113.045     105.811
  C     -102.475    -114.533     107.438
  O     -102.963    -115.698     106.737
  C     -101.057    -114.268     106.923
  O     -100.210    -113.608     107.847
  C     -100.558    -115.683     106.636
  O      -99.957    -116.272     107.800
  C     -101.835    -116.437     106.250
  N     -102.299    -119.769     102.399
  C     -102.029    -120.018     103.732
  N     -101.825    -121.310     104.063
  N     -101.956    -119.078     104.638
  C     -102.084    -117.828     104.138
  C     -102.332    -117.458     102.834
  C     -102.486    -118.508     101.851
  O     -102.741    -118.341     100.663
  N     -102.359    -116.091     102.695
  C     -102.042    -115.642     103.892
  N     -101.945    -116.654     104.818
  O     -104.017    -110.651     106.348
  O     -104.492    -111.445     103.969
  H      -99.395    -117.015     107.507
  H     -103.439    -110.059     105.834
  H     -102.372    -120.534     101.753
  H     -101.916    -114.597     104.154
  H     -101.873    -117.426     106.725
  H      -99.791    -115.673     105.857
  H     -101.784    -122.061     103.394
  H     -101.085    -113.718     105.978
  H     -101.439    -121.515     104.987
  H     -102.474    -114.780     108.508
  H     -104.422    -113.602     107.537
  H     -103.086    -112.476     107.756
  P      -98.789    -113.034     107.393
  C      -97.460    -114.259     109.299
  O      -97.654    -114.023     107.923
  O      -98.611    -111.740     108.316
  O      -98.661    -112.708     105.942
  H      -98.850    -110.932     107.826
  H      -96.653    -114.949     109.432
  H      -98.354    -114.670     109.720
  H      -97.225    -113.337     109.789

 6  7  8  9  10  11  12  13  14  15  26  29  33  34 0
 6-311+G(2d,p)
 ****
 36  38  39  40  41 0
 6-311+G(2d,p)
 ****
 1  2  3  4  5  16  17  18  19  20  21  22  23  24  25 0
 3-21G
 ****
 27  28  30  31  32  35  37  42  43  44  45  46  47 0
 3-21G
 ****
 48  49 0
 3-21G
 ****


