%nproc=1
%NoSave
%Mem=1900MB
#P OB98/GEN NMR

erre ene a

0 1
  C      159.693     284.065      52.653
  O      158.314     284.346      52.473
  P      157.822     284.716      50.989
  C      155.469     285.043      49.945
  O      156.239     284.447      50.980
  C      154.132     284.327      49.789
  O      154.336     283.046      49.166
  C      153.420     284.031      51.099
  O      152.717     285.164      51.586
  C      152.456     282.935      50.668
  O      151.293     283.525      50.053
  C      153.279     282.164      49.623
  N      152.848     277.131      49.987
  C      152.031     278.049      49.354
  N      150.958     277.547      48.703
  N      152.242     279.337      49.361
  C      153.372     279.689      50.016
  C      154.263     278.877      50.683
  C      153.989     277.457      50.710
  O      154.643     276.605      51.308
  N      155.300     279.600      51.213
  C      155.061     280.841      50.839
  N      153.885     280.951      50.136
  O      158.404     283.518      50.105
  O      158.267     286.047      50.487
  H      150.800     283.987      50.759
  H      158.522     283.813      49.181
  H      152.649     276.150      49.933
  H      155.704     281.683      51.051
  H      152.673     281.909      48.747
  H      152.099     282.326      51.502
  H      150.815     276.561      48.553
  H      154.115     283.636      51.848
  H      150.366     278.201      48.203
  H      153.497     284.929      49.127
  H      156.021     284.974      48.999
  H      155.314     286.100      50.180
  P      152.266     285.120      53.130
  C      152.522     286.774      55.118
  O      152.695     286.541      53.734
  O      153.300     284.092      53.785
  O      150.848     284.712      53.343
  H      152.907     283.674      54.576
  H      152.716     285.872      55.701
  H      151.500     287.115      55.304
  H      153.218     287.553      55.434
  H      159.879     283.836      53.682
  H      160.271     284.919      52.367
  H      159.969     283.228      52.046

 3  4  5  6  7  8  9  10  11  12  23  26  30  31  33  0
 6-311+G(2d,p)
 ****
 35  36  37  38 0
 6-311+G(2d,p)
 ****
 1  2  13  14  15  16  17  18  19  20  21  22  24  25  27  28  29 0
 3-21G
 ****
 32  34  39  40  41  42  43  44  45  46  47  48  49 0
 3-21G
 ****


