%nproc=1
%NoSave
%Mem=1900MB
#P OB98/GEN NMR

erre ene a

0 1
  C     -110.222      -7.840      53.562
  O     -109.801      -9.141      53.143
  P     -110.890     -10.321      53.253
  C     -109.655     -12.404      54.207
  O     -110.112     -11.710      53.053
  C     -108.760     -13.576      53.813
  O     -107.422     -13.132      53.522
  C     -108.600     -14.632      54.897
  O     -109.715     -15.508      54.947
  C     -107.358     -15.368      54.410
  O     -107.724     -16.335      53.409
  C     -106.525     -14.238      53.787
  N     -101.860     -15.164      55.536
  C     -102.634     -15.889      54.652
  N     -102.073     -17.007      54.140
  N     -103.845     -15.551      54.300
  C     -104.265     -14.394      54.867
  C     -103.594     -13.589      55.757
  C     -102.265     -13.992      56.163
  O     -101.550     -13.404      56.967
  N     -104.341     -12.493      56.106
  C     -105.452     -12.619      55.407
  N     -105.459     -13.767      54.649
  O     -111.722     -10.166      51.893
  O     -111.763     -10.229      54.458
  H     -108.156     -17.079      53.875
  H     -112.626     -10.512      52.015
  H     -100.936     -15.476      55.777
  H     -106.272     -11.913      55.409
  H     -106.086     -14.536      52.829
  H     -106.851     -15.916      55.210
  H     -101.120     -17.288      54.311
  H     -108.398     -14.168      55.870
  H     -102.613     -17.532      53.461
  H     -109.179     -14.035      52.905
  H     -110.509     -12.776      54.777
  H     -109.121     -11.703      54.855
  P     -110.259     -15.919      56.400
  C     -110.928     -18.278      55.553
  O     -111.348     -17.064      56.142
  O     -111.127     -14.648      56.836
  O     -109.191     -16.238      57.392
  H     -111.134     -14.562      57.809
  H     -109.986     -18.624      55.986
  H     -110.808     -18.142      54.475
  H     -111.694     -19.039      55.729
  H     -109.415      -7.148      53.441
  H     -110.512      -7.873      54.591
  H     -111.054      -7.525      52.967

 3  4  5  6  7  8  9  10  11  12  23  26  30  31  33  0
 6-311+G(2d,p)
 ****
 35  36  37  38 0
 6-311+G(2d,p)
 ****
 1  2  13  14  15  16  17  18  19  20  21  22  24  25  27  28  29 0
 3-21G
 ****
 32  34  39  40  41  42  43  44  45  46  47  48  49 0
 3-21G
 ****


