%nproc=1
%NoSave
%Mem=1900MB
#P OB98/GEN NMR

erre ene a

0 1
  C     -130.836    -212.765     191.240
  O     -129.505    -212.520     190.786
  P     -128.302    -213.567     190.861
  C     -127.543    -213.081     193.334
  O     -128.092    -213.991     192.388
  C     -126.327    -213.696     194.051
  O     -125.679    -212.657     194.845
  C     -126.720    -214.824     195.015
  O     -125.843    -215.948     194.972
  C     -126.855    -214.099     196.346
  O     -126.776    -214.965     197.469
  C     -125.763    -213.032     196.239
  N     -125.974    -211.127     200.973
  C     -125.824    -212.439     200.565
  N     -125.732    -213.369     201.535
  N     -125.781    -212.806     199.311
  C     -125.963    -211.786     198.440
  C     -126.136    -210.451     198.723
  C     -126.129    -210.044     200.114
  O     -126.240    -208.903     200.531
  N     -126.281    -209.709     197.576
  C     -126.212    -210.598     196.603
  N     -126.014    -211.876     197.081
  O     -127.075    -213.205     190.088
  O     -128.915    -214.902     190.200
  H     -125.880    -215.338     197.494
  H     -128.174    -215.362     189.758
  H     -125.972    -210.898     201.949
  H     -126.285    -210.374     195.544
  H     -124.787    -213.418     196.544
  H     -127.847    -213.629     196.370
  H     -125.882    -213.175     202.513
  H     -127.690    -215.253     194.739
  H     -125.847    -214.340     201.232
  H     -125.611    -214.044     193.295
  H     -128.341    -212.888     194.059
  H     -127.283    -212.134     192.856
  P     -125.827    -217.161     193.936
  C     -126.910    -218.910     195.468
  O     -127.049    -218.147     194.287
  O     -124.544    -218.027     194.329
  O     -125.752    -216.753     192.498
  H     -123.916    -218.049     193.579
  H     -127.655    -219.710     195.449
  H     -127.099    -218.273     196.342
  H     -125.910    -219.349     195.535
  H     -131.436    -211.896     191.070
  H     -130.820    -212.989     192.286
  H     -131.249    -213.594     190.704

 3  4  5  6  7  8  9  10  11  12  23  26  30  31 0
 6-311+G(2d,p)
 ****
 33  35  36  37  38 0
 6-311+G(2d,p)
 ****
 1  2  13  14  15  16  17  18  19  20  21  22  24  25 0
 3-21G
 ****
 27  28  29  32  34  39  40  41  42  43  44  45  46  47  48  49 0
 3-21G
 ****


