%nproc=1
%NoSave
%Mem=1900MB
#P OB98/GEN NMR

erre ene a

0 1
  C       -8.358    -154.615     -15.319
  O       -8.547    -153.233     -14.995
  P       -7.243    -152.333     -14.739
  C       -5.868    -151.538     -12.676
  O       -7.023    -152.211     -13.153
  C       -6.255    -150.507     -11.606
  O       -6.869    -149.336     -12.195
  C       -7.256    -151.036     -10.583
  O       -6.612    -151.775      -9.552
  C       -7.804    -149.733     -10.015
  O       -6.888    -149.194      -9.043
  C       -7.862    -148.833     -11.262
  N      -11.721    -145.915     -12.757
  C      -10.530    -145.573     -12.142
  N      -10.335    -144.255     -11.901
  N       -9.611    -146.440     -11.799
  C       -9.937    -147.716     -12.118
  C      -11.084    -148.182     -12.725
  C      -12.097    -147.212     -13.087
  O      -13.179    -147.457     -13.618
  N      -11.051    -149.546     -12.877
  C       -9.881    -149.904     -12.385
  N       -9.172    -148.832     -11.895
  O       -7.739    -150.862     -15.140
  O       -6.046    -152.749     -15.532
  H       -6.791    -149.872      -8.346
  H       -6.984    -150.327     -15.443
  H      -12.395    -145.207     -12.994
  H       -9.503    -150.920     -12.363
  H       -7.611    -147.790     -11.035
  H       -8.762    -149.875      -9.503
  H      -10.974    -143.530     -12.181
  H       -8.058    -151.608     -11.071
  H       -9.450    -143.983     -11.482
  H       -5.339    -150.194     -11.086
  H       -5.349    -151.038     -13.500
  H       -5.163    -152.277     -12.282
  P       -6.713    -153.377      -9.614
  C       -8.673    -155.085      -9.603
  O       -8.275    -153.723      -9.553
  O       -6.161    -153.821      -8.174
  O       -5.940    -154.013     -10.723
  H       -5.716    -154.688      -8.241
  H       -9.744    -155.142      -9.390
  H       -8.131    -155.677      -8.863
  H       -8.492    -155.491     -10.607
  H       -9.310    -155.082     -15.460
  H       -7.838    -155.101     -14.520
  H       -7.784    -154.695     -16.219

 3  4  5  6  7  8  9  10  11  12  23  26  30  31 0
 6-311+G(2d,p)
 ****
 33  35  36  37  38 0
 6-311+G(2d,p)
 ****
 1  2  13  14  15  16  17  18  19  20  21  22  24  25 0
 3-21G
 ****
 27  28  29  32  34  39  40  41  42  43  44  45  46  47  48  49 0
 3-21G
 ****


