%nproc=1
%NoSave
%Mem=1900MB
#P OB98/GEN NMR

erre ene a

0 1
  C       56.671    -256.760    -500.922
  O       56.474    -258.144    -500.713
  H       56.009    -256.208    -500.254
  H       56.433    -256.496    -501.957
  H       57.707    -256.491    -500.701
  P       57.279    -259.136    -501.688
  C       59.207    -259.297    -499.938
  O       58.814    -258.931    -501.252
  C       60.317    -260.346    -499.998
  O       59.839    -261.557    -500.619
  C       61.535    -259.926    -500.821
  O       62.395    -259.027    -500.135
  C       62.187    -261.282    -501.025
  O       62.824    -261.701    -499.802
  C       60.955    -262.153    -501.337
  N       60.656    -262.231    -502.772
  C       61.404    -263.145    -503.523
  O       62.265    -263.838    -502.982
  N       61.185    -263.233    -504.875
  C       60.285    -262.487    -505.428
  N       60.111    -262.609    -506.773
  C       59.465    -261.517    -504.680
  C       59.699    -261.442    -503.373
  O       57.216    -258.397    -503.107
  O       56.818    -260.554    -501.707
  H       62.224    -261.454    -499.078
  H       57.811    -258.853    -503.754
  H       58.729    -260.905    -505.192
  H       59.134    -260.748    -502.753
  H       61.085    -263.174    -500.955
  H       62.952    -261.281    -501.798
  H       61.244    -259.523    -501.793
  H       60.597    -260.590    -498.965
  H       60.734    -263.241    -507.270
  H       58.332    -259.704    -499.421
  H       59.549    -261.973    -507.320
  H       59.565    -258.419    -499.396
  P       63.413    -258.160    -501.026
  C       61.599    -256.366    -501.544
  O       62.521    -257.317    -502.059
  O       64.110    -259.259    -501.952
  O       64.413    -257.366    -500.240
  H       65.041    -259.025    -502.136
  H       61.086    -255.892    -502.354
  H       62.127    -255.629    -500.976
  H       60.890    -256.861    -500.914

 6  7  8  9  10  11  12  13  14  15  16  26  30  31  32  33  35 0
 6-311+G(2d,p)
 ****
 37  38 0
 6-311+G(2d,p)
 ****
 1  2  3  4  5  17  18  19  20  21  22  23  24  25 0
 3-21G
 ****
 27  28  29  34  36  39  40  41  42  43  44  45  46 0
 3-21G
 ****


