%nproc=1
%NoSave
%Mem=1900MB
#P OB98/GEN NMR

erre ene a

0 1
  C     -326.074      70.907      53.092
  O     -326.508      69.561      53.214
  P     -325.793      68.459      52.291
  C     -325.866      67.827      49.774
  O     -326.204      68.776      50.774
  C     -325.804      68.486      48.393
  O     -324.999      69.694      48.486
  C     -325.189      67.607      47.291
  O     -325.883      67.919      46.076
  C     -323.754      68.106      47.254
  O     -323.050      67.743      46.078
  C     -323.977      69.598      47.464
  N     -319.555      71.601      45.859
  C     -320.579      71.031      45.189
  N     -321.731      70.526      45.683
  C     -321.775      70.666      47.020
  C     -320.798      71.210      47.842
  C     -319.643      71.695      47.208
  N     -318.593      72.267      47.900
  N     -321.184      71.155      49.166
  C     -322.373      70.587      49.147
  N     -322.780      70.294      47.871
  O     -326.607      67.125      52.626
  O     -324.321      68.294      52.531
  H     -322.176      68.188      46.063
  H     -326.016      66.348      52.662
  H     -320.463      70.970      44.113
  H     -322.970      70.354      50.021
  H     -324.360      70.087      46.560
  H     -323.205      67.672      48.101
  H     -325.283      66.532      47.490
  H     -326.821      68.791      48.111
  H     -326.630      67.040      49.744
  H     -317.734      72.398      47.379
  H     -318.577      72.144      48.903
  H     -324.909      67.356      50.027
  P     -325.978      66.803      44.926
  C     -324.299      65.879      43.216
  O     -324.510      66.800      44.273
  O     -326.826      67.586      43.817
  O     -326.551      65.491      45.341
  H     -326.442      68.462      43.629
  H     -323.299      66.050      42.801
  H     -325.043      66.031      42.428
  H     -324.350      64.857      43.595
  H     -326.635      71.525      53.762
  H     -326.226      71.241      52.087
  H     -325.034      70.970      53.335

 3  4  5  6  7  8  9  10  11  12  22  25  29  30  31  32 0
 6-311+G(2d,p)
 ****
 33  36  37 0
 6-311+G(2d,p)
 ****
 1  2  13  14  15  16  17  18  19  20  21  23  24  26 0
 3-21G
 ****
 27  28  34  35  38  39  40  41  42  43  44  45  46  47  48 0
 3-21G
 ****


