%nproc=1
%NoSave
%Mem=1900MB
#P OB98/GEN NMR

erre ene a

0 1
  C      179.270    -192.632    -667.176
  O      178.792    -192.103    -668.398
  H      180.182    -193.216    -667.352
  H      179.503    -191.808    -666.502
  H      178.509    -193.262    -666.710
  P      178.409    -193.178    -669.535
  C      180.108    -192.637    -671.412
  O      179.765    -193.502    -670.340
  C      181.451    -193.044    -672.009
  O      181.686    -192.235    -673.196
  C      182.648    -192.853    -671.047
  O      183.445    -194.043    -670.995
  C      183.468    -191.749    -671.707
  O      184.872    -191.920    -671.515
  C      183.076    -191.866    -673.176
  N      186.517    -189.132    -675.765
  C      186.454    -190.454    -675.488
  N      185.456    -191.139    -674.882
  C      184.437    -190.319    -674.573
  C      184.352    -188.953    -674.810
  C      185.457    -188.343    -675.425
  N      185.551    -186.999    -675.649
  N      183.141    -188.451    -674.340
  C      182.539    -189.481    -673.795
  N      183.291    -190.624    -673.892
  O      177.542    -192.314    -670.570
  O      177.650    -194.359    -669.036
  H      185.316    -191.201    -672.017
  H      176.647    -192.699    -670.623
  H      187.310    -191.039    -675.799
  H      181.590    -189.446    -673.265
  H      183.638    -192.664    -673.687
  H      183.166    -190.784    -671.294
  H      182.335    -192.563    -670.037
  H      181.393    -194.091    -672.338
  H      180.176    -191.603    -671.039
  H      186.431    -186.630    -675.981
  H      184.816    -186.397    -675.299
  H      179.316    -192.683    -672.173
  P      183.398    -194.844    -669.595
  C      184.866    -193.275    -668.118
  O      183.558    -193.774    -668.405
  O      184.798    -195.640    -669.589
  O      182.250    -195.783    -669.466
  H      184.639    -196.601    -669.490
  H      184.812    -192.578    -667.308
  H      185.259    -192.786    -668.984
  H      185.506    -194.088    -667.846

 6  7  8  9  10  11  12  13  14  15  25  28  32  33  34  35 0
 6-311+G(2d,p)
 ****
 36  39  40 0
 6-311+G(2d,p)
 ****
 1  2  3  4  5  16  17  18  19  20  21  22  23  24 0
 3-21G
 ****
 26  27  29  30  31  37  38  41  42  43  44  45  46  47  48 0
 3-21G
 ****


