%nproc=1
%NoSave
%Mem=1900MB
#P OB98/GEN NMR

erre ene a

0 1
  C       13.785      54.764      11.665
  O       14.890      54.133      12.278
  H       12.885      54.182      11.879
  H       13.926      54.811      10.582
  H       13.659      55.773      12.067
  P       16.334      54.775      11.987
  C       18.319      55.362      13.572
  O       16.961      54.969      13.454
  C       18.737      55.362      15.039
  O       17.953      56.316      15.791
  C       18.540      54.028      15.754
  O       19.542      53.074      15.450
  C       18.620      54.492      17.197
  O       19.990      54.771      17.539
  C       17.783      55.787      17.135
  N       16.364      55.567      17.426
  C       15.964      55.728      18.758
  O       16.778      56.036      19.626
  N       14.649      55.499      19.084
  C       13.802      55.162      18.162
  N       12.515      54.948      18.547
  C       14.176      54.995      16.747
  C       15.456      55.210      16.452
  O       15.991      56.276      11.551
  O       17.199      54.033      11.026
  H       20.523      54.047      17.164
  H       16.822      56.807      11.490
  H       13.437      54.700      16.016
  H       15.806      55.107      15.431
  H       18.170      56.539      17.834
  H       18.260      53.751      17.910
  H       17.541      53.617      15.570
  H       19.782      55.688      15.088
  H       12.302      55.012      19.534
  H       18.424      56.368      13.151
  H       11.820      54.539      17.936
  H       18.960      54.674      13.014
  P       19.568      51.729      16.327
  C       20.649      49.375      16.070
  O       20.352      50.628      15.467
  O       18.051      51.229      16.272
  O       20.050      51.904      17.733
  H       17.795      50.795      17.109
  H       21.171      48.757      15.370
  H       19.738      48.894      16.360
  H       21.261      49.531      16.934

 6  7  8  9  10  11  12  13  14  15  16  26  30  31  32  33  35 0
 6-311+G(2d,p)
 ****
 37  38 0
 6-311+G(2d,p)
 ****
 1  2  3  4  5  17  18  19  20  21  22  23  24  25 0
 3-21G
 ****
 27  28  29  34  36  39  40  41  42  43  44  45  46 0
 3-21G
 ****


