%nproc=1
%NoSave
%Mem=1900MB
#P OB98/GEN NMR

erre ene a

0 1
  C       15.741     828.514    -198.015
  O       15.664     829.246    -196.808
  H       15.930     827.452    -197.802
  H       14.782     828.597    -198.537
  H       16.532     828.910    -198.658
  P       16.994     829.274    -195.902
  C       17.559     831.534    -197.043
  O       18.027     830.251    -196.645
  C       17.834     832.563    -195.951
  O       19.256     832.755    -195.798
  C       17.259     833.952    -196.220
  O       15.872     834.007    -195.907
  C       18.088     834.786    -195.259
  O       17.564     834.648    -193.923
  C       19.465     834.124    -195.351
  N       22.377     838.265    -196.129
  C       21.662     837.845    -195.053
  N       20.925     836.727    -194.916
  C       20.996     835.976    -196.028
  C       21.706     836.258    -197.190
  C       22.421     837.469    -197.217
  N       23.095     837.904    -198.343
  N       21.521     835.250    -198.127
  C       20.702     834.397    -197.543
  N       20.361     834.793    -196.279
  O       17.616     827.804    -196.145
  O       16.767     829.538    -194.449
  H       18.205     835.077    -193.319
  H       17.349     827.222    -195.411
  H       21.671     838.527    -194.196
  H       20.322     833.496    -198.006
  H       19.975     834.073    -194.374
  H       18.072     835.860    -195.500
  H       17.461     834.278    -197.246
  H       17.452     832.153    -195.009
  H       16.479     831.486    -197.234
  H       23.153     838.924    -198.417
  H       22.871     837.403    -199.201
  H       18.069     831.815    -197.975
  P       14.997     835.140    -196.627
  C       14.219     833.432    -198.406
  O       14.828     834.691    -198.163
  O       16.014     836.390    -196.704
  O       13.732     835.520    -195.918
  H       15.621     837.163    -196.266
  H       14.169     833.258    -199.461
  H       13.231     833.429    -197.996
  H       14.799     832.660    -197.944

 6  7  8  9  10  11  12  13  14  15  25  28  32  33  34  35 0
 6-311+G(2d,p)
 ****
 36  39  40 0
 6-311+G(2d,p)
 ****
 1  2  3  4  5  16  17  18  19  20  21  22  23  24 0
 3-21G
 ****
 26  27  29  30  31  37  38  41  42  43  44  45  46  47  48 0
 3-21G
 ****


