%nproc=1
%NoSave
%Mem=1900MB
#P OB98/GEN NMR

erre ene a

0 1
  C      326.346     164.644    -384.890
  O      327.137     165.803    -385.167
  P      327.967     166.423    -383.936
  C      330.337     165.349    -384.030
  O      329.512     166.459    -384.367
  C      331.597     165.819    -383.303
  O      332.258     164.716    -382.655
  C      332.650     166.430    -384.216
  O      332.343     167.781    -384.540
  C      333.884     166.358    -383.327
  O      333.902     167.474    -382.418
  C      333.666     165.045    -382.557
  N      338.148     162.678    -382.525
  C      337.735     163.804    -381.839
  N      338.641     164.360    -381.003
  N      336.548     164.333    -381.961
  C      335.740     163.651    -382.806
  C      336.029     162.527    -383.542
  C      337.361     161.969    -383.424
  O      337.787     160.992    -384.035
  N      334.952     162.114    -384.283
  C      334.000     162.972    -383.970
  N      334.435     163.933    -383.092
  O      327.916     165.250    -382.844
  O      327.407     167.701    -383.410
  H      334.777     167.474    -381.980
  H      327.997     165.625    -381.946
  H      339.078     162.315    -382.402
  H      332.985     162.939    -384.352
  H      333.904     165.147    -381.494
  H      334.820     166.399    -383.896
  H      339.545     163.963    -380.809
  H      332.802     165.815    -385.114
  H      338.342     165.165    -380.466
  H      331.297     166.543    -382.536
  H      330.619     164.806    -384.936
  H      329.760     164.656    -383.409
  P      332.730     168.285    -386.012
  C      330.446     167.916    -387.184
  O      331.369     168.840    -386.645
  O      333.000     166.918    -386.806
  O      333.905     169.204    -386.062
  H      333.646     167.065    -387.522
  H      330.333     167.043    -386.533
  H      330.782     167.593    -388.174
  H      329.472     168.404    -387.282
  H      325.847     164.331    -385.783
  H      325.620     164.878    -384.139
  H      326.979     163.855    -384.540

 3  4  5  6  7  8  9  10  11  12  23  26  30  31  33  0
 6-311+G(2d,p)
 ****
 35  36  37  38 0
 6-311+G(2d,p)
 ****
 1  2  13  14  15  16  17  18  19  20  21  22  24  25  27  28  29 0
 3-21G
 ****
 32  34  39  40  41  42  43  44  45  46  47  48  49 0
 3-21G
 ****


