%nproc=1
%NoSave
%Mem=1900MB
#P OB98/GEN NMR

erre ene a

0 1
  C     -898.340      57.964     938.564
  O     -898.130      59.025     939.499
  P     -898.600      60.536     939.232
  C     -896.330      60.905     938.038
  O     -897.290      61.421     938.947
  C     -894.950      61.543     938.280
  O     -894.960      62.949     937.954
  C     -894.470      61.508     939.729
  O     -894.050      60.210     940.133
  C     -893.340      62.547     939.685
  O     -892.100      61.948     939.225
  C     -893.860      63.544     938.634
  N     -894.240      64.824     939.236
  C     -893.200      65.614     939.718
  O     -892.060      65.206     939.708
  N     -893.510      66.869     940.215
  C     -894.750      67.244     940.320
  N     -895.010      68.498     940.796
  C     -895.890      66.359     939.953
  C     -895.550      65.187     939.414
  O     -899.500      61.105     940.293
  O     -899.350      60.494     937.803
  H     -900.000      61.231     937.762
  H     -891.440      62.663     939.198
  H     -896.920      66.699     940.093
  H     -896.340      64.486     939.110
  H     -893.100      63.730     937.880
  H     -893.130      62.972     940.686
  H     -895.260      61.865     940.396
  H     -894.210      61.042     937.614
  H     -894.190      69.063     941.040
  H     -896.650      61.142     937.016
  H     -895.920      68.873     940.894
  H     -896.290      59.818     938.138
  P     -894.950      59.485     941.248
  C     -893.780      60.584     943.293
  O     -894.080      59.383     942.601
  O     -895.040      57.961     940.741
  O     -896.330      60.070     941.424
  H     -895.940      57.591     940.916
  H     -893.650      60.328     944.359
  H     -894.590      61.314     943.211
  H     -892.860      60.999     942.900
  H     -897.943      57.054     938.962
  H     -897.846      58.196     937.644
  H     -899.389      57.848     938.386

 3  4  5  6  7  8  9  10  11  12  13  24  27  28  29  30  32 0
 6-311+G(2d,p)
 ****
 34  35 0
 6-311+G(2d,p)
 ****
 1  2  14  15  16  17  18  19  20  21  22  23  25  26 0
 3-21G
 ****
 31  33  36  37  38  39  40  41  42  43  44  45  46 0
 3-21G
 ****


