%nproc=1
%NoSave
%Mem=1900MB
#P OB98/GEN NMR

erre ene a

0 1
  C       27.160     -50.510      64.867
  O       26.474     -51.722      64.545
  P       27.403     -52.998      64.249
  C       25.617     -54.681      65.088
  O       26.433     -54.255      64.007
  C       24.342     -53.835      65.180
  O       23.687     -53.750      63.879
  C       23.306     -54.391      66.171
  O       22.656     -53.260      66.764
  C       22.355     -55.138      65.249
  O       21.109     -55.438      65.854
  C       22.318     -54.169      64.074
  N       18.022     -55.165      61.512
  C       18.244     -54.586      62.712
  N       19.423     -54.360      63.329
  C       20.443     -54.795      62.570
  C       20.373     -55.407      61.328
  C       19.087     -55.590      60.792
  N       18.848     -56.198      59.580
  N       21.642     -55.735      60.872
  C       22.444     -55.389      61.863
  N       21.777     -54.746      62.866
  O       28.082     -53.302      65.666
  O       28.411     -52.767      63.172
  H       20.753     -54.641      66.295
  H       28.986     -52.937      65.696
  H       17.356     -54.266      63.250
  H       23.507     -55.580      61.903
  H       21.726     -53.272      64.296
  H       22.813     -56.089      64.951
  H       23.740     -55.010      66.960
  H       24.625     -52.816      65.471
  H       26.168     -54.600      66.028
  H       17.890     -56.288      59.281
  H       19.614     -56.539      59.019
  H       25.381     -55.742      64.960
  P       23.113     -52.787      68.229
  C       23.369     -50.256      67.905
  O       22.532     -51.297      68.369
  O       24.667     -52.492      67.970
  O       22.846     -53.739      69.344
  H       24.793     -51.929      67.185
  H       22.827     -49.310      67.983
  H       23.641     -50.424      66.861
  H       24.270     -50.198      68.523
  H       26.446     -49.732      65.044
  H       27.796     -50.233      64.052
  H       27.751     -50.658      65.746

 3  4  5  6  7  8  9  10  11  12  22  25  29  30  31  32 0
 6-311+G(2d,p)
 ****
 33  36  37 0
 6-311+G(2d,p)
 ****
 1  2  13  14  15  16  17  18  19  20  21  23  24  26 0
 3-21G
 ****
 27  28  34  35  38  39  40  41  42  43  44  45  46  47  48 0
 3-21G
 ****


