%nproc=1
%NoSave
%Mem=1900MB
#P OB98/GEN NMR

erre ene a

0 1
  C      534.417    -119.118     140.886
  O      534.042    -118.603     139.625
  H      535.328    -118.613     141.214
  H      534.619    -120.189     140.800
  H      533.636    -118.945     141.630
  P      532.592    -118.952     139.042
  C      530.273    -118.462     140.061
  O      531.563    -117.947     139.757
  C      529.286    -117.326     140.340
  O      529.592    -116.749     141.642
  C      529.332    -116.184     139.310
  O      528.014    -115.627     139.228
  C      530.279    -115.207     139.978
  O      530.174    -113.917     139.417
  C      529.847    -115.346     141.442
  N      530.852    -114.826     142.372
  C      530.690    -113.511     142.788
  O      529.783    -112.782     142.387
  N      531.636    -113.035     143.652
  C      532.740    -113.715     144.079
  O      533.575    -113.226     144.831
  C      532.883    -115.091     143.572
  C      531.943    -115.577     142.756
  O      532.202    -120.391     139.099
  O      532.626    -118.400     137.539
  H      530.185    -113.970     138.437
  H      532.044    -118.942     136.972
  H      531.533    -112.084     143.971
  H      533.751    -115.654     143.884
  H      532.017    -116.586     142.367
  H      528.910    -114.803     141.622
  H      531.320    -115.533     139.857
  H      529.675    -116.511     138.326
  H      528.275    -117.750     140.412
  H      530.363    -119.106     140.941
  H      529.915    -119.065     139.217
  P      526.941    -116.131     138.148
  C      525.429    -118.189     137.795
  O      526.198    -117.432     138.729
  O      527.495    -116.306     136.771
  O      525.795    -115.014     138.159
  H      525.359    -114.981     137.286
  H      524.985    -119.025     138.293
  H      526.066    -118.539     137.010
  H      524.660    -117.570     137.382

 6  7  8  9  10  11  12  13  14  15  16  26  31  32  33  34  35 0
 6-311+G(2d,p)
 ****
 36  37 0
 6-311+G(2d,p)
 ****
 1  2  3  4  5  17  18  19  20  21  22  23  24  25 0
 3-21G
 ****
 27  28  29  30  38  39  40  41  42  43  44  45 0
 3-21G
 ****


