%nproc=1
%NoSave
%Mem=1900MB
#P OB98/GEN NMR

erre ene a

0 1
  C     -530.715    -153.659     176.247
  O     -529.709    -154.656     176.320
  H     -530.524    -153.032     175.370
  H     -530.696    -153.034     177.140
  H     -531.700    -154.126     176.137
  P     -529.801    -155.667     177.562
  C     -531.523    -157.396     176.672
  O     -531.284    -156.285     177.521
  C     -531.648    -158.678     177.496
  O     -532.800    -158.619     178.366
  C     -531.799    -159.942     176.659
  O     -530.535    -160.420     176.217
  C     -532.457    -160.882     177.666
  O     -531.489    -161.460     178.570
  C     -533.401    -159.943     178.411
  N     -538.078    -161.801     178.824
  C     -536.957    -162.027     179.591
  N     -537.096    -162.929     180.594
  N     -535.810    -161.437     179.401
  C     -535.824    -160.593     178.346
  C     -536.868    -160.264     177.513
  C     -538.143    -160.911     177.764
  O     -539.194    -160.699     177.153
  N     -536.490    -159.345     176.570
  C     -535.207    -159.145     176.806
  N     -534.752    -159.888     177.857
  O     -529.841    -154.698     178.839
  O     -528.692    -156.660     177.662
  H     -531.949    -162.047     179.196
  H     -529.422    -155.149     179.595
  H     -538.944    -162.275     179.031
  H     -534.570    -158.480     176.240
  H     -533.508    -160.210     179.474
  H     -532.955    -161.714     177.168
  H     -537.814    -163.635     180.580
  H     -532.477    -159.780     175.815
  H     -536.270    -163.115     181.153
  H     -530.757    -158.747     178.135
  H     -530.679    -157.502     175.975
  H     -532.435    -157.227     176.102
  P     -530.469    -161.129     174.779
  C     -529.912    -158.954     173.455
  O     -530.847    -160.010     173.694
  O     -531.754    -162.089     174.771
  O     -529.213    -161.890     174.514
  H     -531.673    -162.761     174.075
  H     -530.304    -158.292     172.711
  H     -528.987    -159.368     173.113
  H     -529.746    -158.412     174.363

 6  7  8  9  10  11  12  13  14  15  26  29  33  34 0
 6-311+G(2d,p)
 ****
 36  38  39  40  41 0
 6-311+G(2d,p)
 ****
 1  2  3  4  5  16  17  18  19  20  21  22  23  24  25 0
 3-21G
 ****
 27  28  30  31  32  35  37  42  43  44  45  46  47 0
 3-21G
 ****
 48  49 0
 3-21G
 ****


