%nproc=1
%NoSave
%Mem=1900MB
#P OB98/GEN NMR

erre ene a

0 1
  C      -26.399     131.624     -96.369
  O      -27.168     130.456     -96.659
  P      -28.755     130.494     -96.439
  C      -28.515     130.246     -93.886
  O      -29.056     131.015     -94.949
  C      -29.189     130.605     -92.554
  O      -28.883     131.980     -92.179
  C      -30.718     130.488     -92.618
  O      -31.245     130.073     -91.348
  C      -31.157     131.919     -92.860
  O      -32.518     132.122     -92.486
  C      -30.136     132.674     -92.012
  N      -30.395     137.520     -90.378
  C      -30.502     136.344     -89.721
  N      -30.400     135.094     -90.218
  C      -30.145     135.126     -91.537
  C      -30.000     136.248     -92.337
  C      -30.143     137.496     -91.707
  N      -30.064     138.693     -92.381
  N      -29.750     135.889     -93.647
  C      -29.793     134.572     -93.644
  N      -29.994     134.065     -92.389
  O      -29.493     129.260     -96.834
  O      -29.206     131.745     -97.336
  H      -32.559     132.105     -91.512
  H      -30.031     131.516     -97.809
  H      -30.703     136.418     -88.656
  H      -29.698     133.944     -94.517
  H      -30.391     132.644     -90.946
  H      -31.052     132.166     -93.922
  H      -31.089     129.806     -93.390
  H      -28.785     129.962     -91.765
  H      -27.438     130.418     -93.816
  H      -30.295     139.531     -91.869
  H      -30.025     138.684     -93.391
  H      -28.635     129.181     -94.116
  P      -31.827     128.574     -91.280
  C      -34.247     129.207     -92.040
  O      -33.041     128.530     -92.322
  O      -32.131     128.115     -89.891
  O      -30.664     127.738     -91.992
  H      -30.374     128.090     -92.850
  H      -34.890     129.161     -92.922
  H      -34.057     130.257     -91.803
  H      -34.762     128.725     -91.205
  H      -25.366     131.430     -96.569
  H      -26.520     131.884     -95.338
  H      -26.735     132.434     -96.983

 3  4  5  6  7  8  9  10  11  12  22  25  29  30  31  32 0
 6-311+G(2d,p)
 ****
 33  36  37 0
 6-311+G(2d,p)
 ****
 1  2  13  14  15  16  17  18  19  20  21  23  24  26 0
 3-21G
 ****
 27  28  34  35  38  39  40  41  42  43  44  45  46  47  48 0
 3-21G
 ****


