%nproc=1
%NoSave
%Mem=1900MB
#P OB98/GEN NMR

erre ene a

0 1
  C        7.305     -57.533    -660.718
  O        6.282     -57.306    -659.739
  P        6.219     -55.820    -659.122
  C        7.991     -56.059    -657.225
  O        7.661     -55.485    -658.487
  C        9.036     -55.230    -656.481
  O        9.112     -55.682    -655.098
  C       10.455     -55.308    -657.053
  O       11.077     -54.018    -656.926
  C       11.171     -56.253    -656.108
  O       12.583     -56.074    -656.131
  C       10.497     -55.874    -654.782
  N       12.064     -56.756    -650.050
  C       11.938     -55.559    -650.732
  N       12.308     -54.440    -650.067
  N       11.496     -55.461    -651.959
  C       11.140     -56.659    -652.493
  C       11.209     -57.912    -651.917
  C       11.744     -58.003    -650.578
  O       11.930     -59.037    -649.943
  N       10.759     -58.884    -652.772
  C       10.420     -58.225    -653.875
  N       10.643     -56.871    -653.748
  O        5.267     -55.999    -657.839
  O        5.677     -54.793    -660.054
  H       12.772     -55.209    -655.710
  H        4.508     -55.388    -657.896
  H       12.432     -56.770    -649.121
  H       10.044     -58.668    -654.779
  H       10.899     -54.929    -654.401
  H       10.942     -57.291    -656.395
  H       12.592     -54.429    -649.092
  H       10.498     -55.640    -658.092
  H       12.179     -53.554    -650.523
  H        8.689     -54.182    -656.453
  H        8.372     -57.070    -657.375
  H        7.071     -56.138    -656.631
  P       11.250     -53.172    -658.278
  C       13.815     -53.558    -658.562
  O       12.512     -53.821    -659.039
  O       11.818     -51.764    -657.762
  O       10.007     -53.023    -659.085
  H       11.577     -51.054    -658.386
  H       13.812     -53.078    -657.577
  H       14.331     -52.905    -659.271
  H       14.364     -54.508    -658.485
  H        7.255     -58.546    -661.058
  H        8.264     -57.350    -660.280
  H        7.159     -56.872    -661.546

 3  4  5  6  7  8  9  10  11  12  23  26  30  31  33  0
 6-311+G(2d,p)
 ****
 35  36  37  38 0
 6-311+G(2d,p)
 ****
 1  2  13  14  15  16  17  18  19  20  21  22  24  25  27  28  29 0
 3-21G
 ****
 32  34  39  40  41  42  43  44  45  46  47  48  49 0
 3-21G
 ****


