%nproc=1
%NoSave
%Mem=1900MB
#P OB98/GEN NMR

erre ene a

0 1
  C      137.009     116.667      76.583
  O      137.308     117.388      77.785
  P      136.201     117.413      78.942
  C      136.667     115.246      80.302
  O      135.858     115.897      79.335
  C      136.481     115.897      81.676
  O      135.140     115.708      82.179
  C      137.410     115.341      82.746
  O      138.694     115.947      82.694
  C      136.686     115.769      84.013
  O      136.970     117.156      84.293
  C      135.215     115.591      83.622
  N      131.395     113.309      86.027
  C      131.619     114.649      85.783
  N      130.682     115.509      86.240
  N      132.666     115.108      85.148
  C      133.508     114.133      84.733
  C      133.397     112.774      84.915
  C      132.243     112.281      85.633
  O      131.999     111.107      85.892
  N      134.455     112.107      84.357
  C      135.196     113.056      83.819
  N      134.673     114.308      84.035
  O      134.882     117.883      78.163
  O      136.522     118.323      80.081
  H      136.467     117.386      85.096
  H      134.281     118.344      78.777
  H      130.575     113.013      86.526
  H      136.112     112.891      83.269
  H      134.571     116.367      84.051
  H      137.007     115.199      84.889
  H      129.829     115.222      86.692
  H      137.465     114.246      82.694
  H      130.812     116.494      86.042
  H      136.662     116.976      81.568
  H      137.719     115.290      80.011
  H      136.408     114.183      80.324
  P      139.734     115.405      81.599
  C      139.019     117.215      79.882
  O      139.142     115.839      80.177
  O      139.507     113.821      81.648
  O      141.155     115.768      81.855
  H      140.340     113.359      81.440
  H      138.758     117.324      78.826
  H      139.960     117.738      80.066
  H      138.224     117.659      80.487
  H      137.836     116.740      75.908
  H      136.137     117.084      76.124
  H      136.830     115.639      76.819

 3  4  5  6  7  8  9  10  11  12  23  26  30  31 0
 6-311+G(2d,p)
 ****
 33  35  36  37  38 0
 6-311+G(2d,p)
 ****
 1  2  13  14  15  16  17  18  19  20  21  22  24  25 0
 3-21G
 ****
 27  28  29  32  34  39  40  41  42  43  44  45  46  47  48  49 0
 3-21G
 ****


