%nproc=1
%NoSave
%Mem=1900MB
#P OB98/GEN NMR

erre ene a

0 1
  C     -260.636      47.583    -155.252
  O     -260.830      48.768    -156.001
  P     -261.999      49.799    -155.638
  C     -260.518      50.838    -153.818
  O     -261.786      50.267    -154.119
  C     -260.620      51.877    -152.699
  O     -261.269      51.267    -151.541
  C     -259.265      52.435    -152.232
  O     -259.468      53.825    -151.946
  C     -258.991      51.666    -150.960
  O     -258.076      52.337    -150.104
  C     -260.413      51.509    -150.404
  N     -260.512      50.430    -149.429
  C     -260.558      50.799    -148.078
  O     -260.392      51.973    -147.751
  N     -260.794      49.823    -147.137
  C     -260.778      48.575    -147.499
  N     -261.076      47.642    -146.553
  C     -260.479      48.135    -148.879
  C     -260.402      49.109    -149.788
  O     -263.379      49.330    -155.959
  O     -261.633      51.117    -156.477
  H     -262.411      51.384    -157.007
  H     -258.409      53.247    -149.931
  H     -260.354      47.091    -149.107
  H     -260.207      48.889    -150.837
  H     -260.749      52.441    -149.936
  H     -258.564      50.684    -151.206
  H     -258.486      52.330    -152.996
  H     -261.273      52.687    -153.042
  H     -261.316      47.978    -145.626
  H     -260.143      51.326    -154.721
  H     -261.399      46.704    -146.795
  H     -259.814      50.049    -153.546
  P     -258.189      54.802    -151.972
  C     -259.008      55.795    -154.225
  O     -257.933      55.245    -153.490
  O     -256.988      53.757    -151.721
  O     -258.143      55.874    -150.934
  H     -256.229      54.232    -151.326
  H     -258.675      55.972    -155.255
  H     -259.321      56.749    -153.786
  H     -259.856      55.101    -154.244
  H     -259.809      47.037    -155.656
  H     -261.519      46.981    -155.302
  H     -260.433      47.835    -154.232

 3  4  5  6  7  8  9  10  11  12  13  24  27  28  29  30  32 0
 6-311+G(2d,p)
 ****
 34  35 0
 6-311+G(2d,p)
 ****
 1  2  14  15  16  17  18  19  20  21  22  23  25  26 0
 3-21G
 ****
 31  33  36  37  38  39  40  41  42  43  44  45  46 0
 3-21G
 ****


