%nproc=1
%NoSave
%Mem=1900MB
#P OB98/GEN NMR

erre ene a

0 1
  C      -64.608      37.134     394.424
  O      -63.525      37.090     395.348
  P      -63.105      35.652     395.928
  C      -60.705      36.539     396.384
  O      -61.878      35.939     396.923
  C      -59.927      37.272     397.469
  O      -60.710      38.385     397.966
  C      -59.603      36.431     398.693
  O      -58.460      35.606     398.482
  C      -59.314      37.509     399.732
  O      -57.959      37.990     399.571
  C      -60.320      38.615     399.344
  N      -62.672      40.896     403.208
  C      -61.453      41.176     402.622
  N      -60.779      42.230     403.126
  N      -60.942      40.482     401.642
  C      -61.747      39.481     401.215
  C      -62.977      39.100     401.713
  C      -63.511      39.852     402.827
  O      -64.557      39.602     403.434
  N      -63.499      38.050     400.999
  C      -62.602      37.807     400.059
  N      -61.516      38.631     400.168
  O      -62.407      34.941     394.674
  O      -64.227      34.838     396.473
  H      -57.382      37.195     399.523
  H      -62.468      33.970     394.764
  H      -63.032      41.477     403.951
  H      -62.711      37.055     399.293
  H      -59.846      39.604     399.383
  H      -59.412      37.151     400.759
  H      -61.174      42.883     403.788
  H      -60.469      35.840     399.009
  H      -59.892      42.479     402.686
  H      -59.008      37.682     397.022
  H      -60.999      37.258     395.607
  H      -60.084      35.762     395.921
  P      -58.626      34.042     398.825
  C      -56.496      33.535     397.423
  O      -57.162      33.430     398.676
  O      -59.414      33.472     397.555
  O      -59.341      33.766     400.105
  H      -59.924      32.678     397.803
  H      -56.716      34.493     396.939
  H      -56.805      32.714     396.774
  H      -55.411      33.476     397.587
  H      -64.778      38.146     394.122
  H      -65.490      36.748     394.890
  H      -64.369      36.541     393.566

 3  4  5  6  7  8  9  10  11  12  23  26  30  31  33  0
 6-311+G(2d,p)
 ****
 35  36  37  38 0
 6-311+G(2d,p)
 ****
 1  2  13  14  15  16  17  18  19  20  21  22  24  25  27  28  29 0
 3-21G
 ****
 32  34  39  40  41  42  43  44  45  46  47  48  49 0
 3-21G
 ****


