%nproc=1
%NoSave
%Mem=1900MB
#P OB98/GEN NMR

erre ene a

0 1
  C     -106.537     -67.638     -50.581
  O     -105.354     -66.874     -50.639
  P     -105.020     -65.798     -49.498
  C     -105.032     -63.856     -51.186
  O     -105.621     -64.398     -50.012
  C     -105.597     -62.466     -51.464
  O     -107.018     -62.531     -51.762
  C     -105.506     -61.511     -50.283
  O     -104.219     -61.114     -49.865
  C     -106.465     -60.411     -50.714
  O     -105.842     -59.508     -51.626
  C     -107.568     -61.231     -51.433
  N     -108.779     -61.344     -50.622
  C     -109.875     -60.611     -51.063
  O     -109.863     -59.900     -52.067
  N     -110.997     -60.691     -50.283
  C     -111.115     -61.382     -49.110
  O     -112.137     -61.376     -48.440
  C     -109.917     -62.126     -48.690
  C     -108.820     -62.074     -49.449
  O     -103.591     -65.743     -49.076
  O     -106.033     -66.189     -48.317
  H     -106.443     -58.744     -51.736
  H     -106.975     -66.147     -48.560
  H     -111.801     -60.159     -50.577
  H     -109.979     -62.693     -47.770
  H     -107.925     -62.610     -49.159
  H     -107.837     -60.753     -52.385
  H     -106.818     -59.821     -49.861
  H     -105.959     -62.004     -49.411
  H     -105.100     -62.062     -52.349
  H     -105.260     -64.510     -52.035
  H     -103.942     -63.826     -51.070
  P     -103.914     -60.479     -48.428
  C     -103.523     -57.995     -49.058
  O     -104.372     -58.943     -48.446
  O     -102.587     -60.795     -47.821
  O     -105.068     -61.152     -47.531
  H     -104.736     -61.262     -46.619
  H     -103.965     -57.003     -48.941
  H     -103.421     -58.208     -50.127
  H     -102.538     -57.995     -48.583
  H     -106.579     -68.294     -51.425
  H     -107.384     -66.985     -50.594
  H     -106.545     -68.215     -49.680

 3  4  5  6  7  8  9  10  11  12  13  23  28  29  30  31  32 0
 6-311+G(2d,p)
 ****
 33  34 0
 6-311+G(2d,p)
 ****
 1  2  14  15  16  17  18  19  20  21  22  24  25  26  27 0
 3-21G
 ****
 35  36  37  38  39  40  41  42  43  44  45 0
 3-21G
 ****


