%nproc=1
%NoSave
%Mem=1900MB
#P OB98/GEN NMR

erre ene a

0 1
  C       -0.981       7.850     -10.736
  O       -1.091       8.212     -12.099
  H       -1.704       8.435     -10.162
  H        0.023       8.068     -10.362
  H       -1.206       6.789     -10.604
  P       -0.104       7.523     -13.154
  C        1.321       9.675     -13.095
  O        1.312       8.258     -12.986
  C        2.747      10.206     -12.975
  O        3.163      10.223     -11.596
  C        3.789       9.382     -13.728
  O        3.801       9.725     -15.103
  C        5.056       9.812     -13.009
  O        5.451      11.121     -13.465
  C        4.578       9.890     -11.547
  N        5.424       7.943      -6.938
  C        5.448       9.257      -7.362
  N        5.774      10.180      -6.433
  N        5.190       9.631      -8.588
  C        4.948       8.596      -9.424
  C        4.913       7.252      -9.127
  C        5.136       6.857      -7.752
  O        5.099       5.705      -7.330
  N        4.730       6.492     -10.253
  C        4.600       7.378     -11.222
  N        4.734       8.671     -10.772
  O       -0.591       7.461     -14.569
  O        0.167       6.067     -12.548
  H        4.861      11.765     -13.033
  H       -0.467       5.416     -12.901
  H        5.639       7.714      -5.983
  H        4.406       7.141     -12.261
  H        5.084      10.686     -10.990
  H        5.897       9.141     -13.189
  H        6.128       9.943      -5.518
  H        3.641       8.308     -13.573
  H        5.855      11.142      -6.739
  H        2.747      11.247     -13.322
  H        0.697      10.072     -12.288
  H        0.894       9.988     -14.053
  P        3.829       8.599     -16.249
  C        6.344       8.955     -16.741
  O        5.341       8.065     -16.281
  O        3.295       9.037     -17.569
  O        3.054       7.361     -15.606
  H        2.072       7.420     -15.719
  H        7.296       8.468     -16.708
  H        6.365       9.822     -16.115
  H        6.128       9.247     -17.747

 6  7  8  9  10  11  12  13  14  15  26  29  33  34 0
 6-311+G(2d,p)
 ****
 36  38  39  40  41 0
 6-311+G(2d,p)
 ****
 1  2  3  4  5  16  17  18  19  20  21  22  23  24  25 0
 3-21G
 ****
 27  28  30  31  32  35  37  42  43  44  45  46  47 0
 3-21G
 ****
 48  49 0
 3-21G
 ****


