%nproc=1
%NoSave
%Mem=1900MB
#P OB98/GEN NMR

erre ene a

0 1
  C     -290.551      85.506    -355.834
  O     -289.731      84.535    -356.493
  P     -290.178      83.784    -357.836
  C     -287.889      83.736    -359.026
  O     -288.928      82.973    -358.434
  C     -286.600      82.924    -359.184
  O     -286.211      82.334    -357.926
  C     -286.697      81.759    -360.168
  O     -286.663      82.211    -361.509
  C     -285.496      80.919    -359.743
  O     -284.285      81.416    -360.332
  C     -285.484      81.119    -358.217
  N     -286.049      79.987    -357.496
  C     -285.138      79.022    -357.041
  O     -283.937      79.121    -357.319
  N     -285.616      77.950    -356.327
  C     -286.892      77.816    -356.138
  N     -287.299      76.744    -355.411
  C     -287.891      78.768    -356.663
  C     -287.400      79.816    -357.326
  O     -290.855      84.667    -358.829
  O     -291.173      82.622    -357.344
  H     -284.093      82.267    -359.896
  H     -291.834      82.458    -358.045
  H     -288.946      78.606    -356.509
  H     -288.065      80.561    -357.742
  H     -284.459      81.290    -357.858
  H     -285.594      79.872    -360.039
  H     -287.620      81.192    -359.970
  H     -285.804      83.613    -359.495
  H     -286.594      76.116    -355.057
  H     -287.687      84.607    -358.381
  H     -288.276      76.545    -355.197
  H     -288.229      84.104    -360.002
  P     -288.037      82.567    -362.257
  C     -286.768      84.447    -363.468
  O     -287.650      83.349    -363.604
  O     -289.086      83.221    -361.423
  O     -288.543      81.153    -362.806
  H     -289.520      81.151    -362.823
  H     -286.285      84.634    -364.438
  H     -286.006      84.247    -362.710
  H     -287.330      85.339    -363.182
  H     -290.045      85.868    -354.963
  H     -291.477      85.054    -355.547
  H     -290.743      86.321    -356.500

 3  4  5  6  7  8  9  10  11  12  13  23  27  28  29  30  32 0
 6-311+G(2d,p)
 ****
 34  35 0
 6-311+G(2d,p)
 ****
 1  2  14  15  16  17  18  19  20  21  22  24  25  26 0
 3-21G
 ****
 31  33  36  37  38  39  40  41  42  43  44  45  46 0
 3-21G
 ****


