%nproc=1
%NoSave
%Mem=1900MB
#P OB98/GEN NMR

erre ene a

0 1
  C      227.869    -387.468      48.282
  O      229.033    -387.733      49.042
  P      229.328    -389.216      49.563
  C      231.878    -388.869      49.957
  O      230.612    -389.131      50.522
  C      232.993    -389.038      50.999
  O      233.024    -387.844      51.813
  C      232.795    -390.199      51.969
  O      234.049    -390.499      52.584
  C      231.861    -389.588      52.995
  O      231.879    -390.297      54.229
  C      232.355    -388.121      53.064
  N      231.236    -387.180      53.270
  C      230.475    -387.350      54.421
  O      230.746    -388.180      55.287
  N      229.343    -386.588      54.507
  C      228.892    -385.731      53.544
  O      227.748    -385.299      53.492
  C      229.852    -385.422      52.470
  C      230.955    -386.170      52.368
  O      229.880    -389.950      48.252
  O      228.153    -389.927      50.141
  H      232.811    -390.294      54.546
  H      229.159    -390.441      47.814
  H      228.718    -386.813      55.271
  H      229.600    -384.640      51.770
  H      231.656    -385.999      51.557
  H      233.069    -387.976      53.885
  H      230.834    -389.620      52.607
  H      232.368    -391.098      51.517
  H      233.959    -389.123      50.486
  H      231.889    -387.858      49.543
  H      232.066    -389.550      49.117
  P      234.776    -391.869      52.173
  C      237.264    -391.431      52.625
  O      236.064    -391.994      53.115
  O      235.021    -392.068      50.713
  O      233.789    -392.990      52.767
  H      233.967    -393.844      52.333
  H      237.874    -391.115      53.475
  H      237.069    -390.566      51.986
  H      237.811    -392.188      52.056
  H      227.840    -386.430      48.024
  H      227.002    -387.716      48.858
  H      227.884    -388.057      47.389

 3  4  5  6  7  8  9  10  11  12  13  23  28  29  30  31  32 0
 6-311+G(2d,p)
 ****
 33  34 0
 6-311+G(2d,p)
 ****
 1  2  14  15  16  17  18  19  20  21  22  24  25  26  27 0
 3-21G
 ****
 35  36  37  38  39  40  41  42  43  44  45 0
 3-21G
 ****


