%nproc=1
%NoSave
%Mem=1900MB
#P OB98/GEN NMR

erre ene a

0 1
  C      581.253    -187.497    -899.000
  O      581.420    -188.646    -898.140
  P      582.855    -189.301    -897.990
  C      583.422    -189.049    -895.440
  O      583.679    -188.604    -896.770
  C      584.378    -188.377    -894.450
  O      585.765    -188.767    -894.730
  C      584.333    -186.825    -894.440
  O      584.633    -186.416    -893.110
  C      585.515    -186.490    -895.360
  O      585.969    -185.141    -895.170
  C      586.530    -187.543    -894.950
  N      587.620    -187.778    -895.910
  C      588.903    -187.745    -895.440
  O      589.227    -187.461    -894.270
  N      589.899    -187.978    -896.350
  C      589.720    -188.195    -897.690
  O      590.626    -188.382    -898.470
  C      588.305    -188.212    -898.140
  C      587.350    -187.965    -897.240
  O      583.647    -188.698    -899.270
  O      582.903    -190.791    -898.000
  H      586.551    -184.948    -895.940
  H      584.139    -189.408    -899.720
  H      590.847    -187.937    -896.010
  H      588.110    -188.395    -899.200
  H      586.301    -187.998    -897.570
  H      586.957    -187.299    -893.960
  H      585.193    -186.586    -896.410
  H      583.386    -186.444    -894.790
  H      584.163    -188.784    -893.420
  H      583.560    -190.139    -895.410
  H      582.370    -188.835    -895.190
  P      583.360    -186.029    -892.130
  C      583.009    -188.410    -891.120
  O      582.525    -187.360    -891.930
  O      582.468    -185.184    -893.180
  O      583.765    -185.246    -890.920
  H      582.406    -185.614    -894.050
  H      583.510    -188.010    -890.210
  H      583.726    -188.996    -891.710
  H      582.190    -189.051    -890.810
  H      580.229    -187.186    -898.985
  H      581.532    -187.756    -900.000
  H      581.874    -186.698    -898.652

 3  4  5  6  7  8  9  10  11  12  13  23  28  29  30  31  32 0
 6-311+G(2d,p)
 ****
 33  34 0
 6-311+G(2d,p)
 ****
 1  2  14  15  16  17  18  19  20  21  22  24  25  26 0
 3-21G
 ****
 27  35  36  37  38  39  40  41  42  43  44  45 0
 3-21G
 ****


