%nproc=1
%NoSave
%Mem=1900MB
#P OB98/GEN NMR

erre ene a

0 1
  C     -150.116     181.715    -625.275
  O     -149.044     181.257    -624.483
  H     -150.006     181.312    -626.287
  H     -150.101     182.812    -625.333
  H     -151.076     181.380    -624.877
  P     -149.073     181.536    -622.904
  C     -148.369     183.624    -621.564
  O     -149.040     183.126    -622.710
  C     -147.509     184.834    -621.929
  O     -146.429     184.434    -622.817
  C     -148.269     185.924    -622.683
  O     -149.084     186.673    -621.799
  C     -147.109     186.700    -623.307
  O     -146.520     187.591    -622.342
  C     -146.139     185.558    -623.670
  N     -146.215     185.164    -625.094
  C     -145.191     185.647    -625.912
  O     -144.288     186.369    -625.512
  N     -145.258     185.240    -627.232
  C     -146.269     184.521    -627.799
  O     -146.310     184.230    -628.991
  C     -147.335     184.089    -626.877
  C     -147.263     184.425    -625.595
  O     -148.071     180.783    -622.088
  O     -150.572     181.151    -622.477
  H     -145.666     187.871    -622.717
  H     -150.589     180.262    -622.076
  H     -144.536     185.579    -627.847
  H     -148.160     183.512    -627.300
  H     -148.048     184.115    -624.912
  H     -145.108     185.850    -623.468
  H     -147.425     187.320    -624.152
  H     -148.870     185.483    -623.489
  H     -147.064     185.238    -621.018
  H     -147.712     182.834    -621.162
  H     -149.107     183.893    -620.795
  P     -150.614     186.993    -622.163
  C     -151.787     188.849    -623.471
  O     -150.615     188.063    -623.359
  O     -151.481     187.359    -620.988
  O     -151.136     185.641    -622.863
  H     -151.720     185.151    -622.265
  H     -151.686     189.525    -624.294
  H     -151.931     189.405    -622.568
  H     -152.630     188.211    -623.636

 6  7  8  9  10  11  12  13  14  15  16  26  31  32  33  34  35 0
 6-311+G(2d,p)
 ****
 36  37 0
 6-311+G(2d,p)
 ****
 1  2  3  4  5  17  18  19  20  21  22  23  24  25 0
 3-21G
 ****
 27  28  29  30  38  39  40  41  42  43  44  45 0
 3-21G
 ****


