%nproc=1
%NoSave
%Mem=1900MB
#P OB98/GEN NMR

erre ene a

0 1
  C      971.823    -573.483    -445.723
  O      972.985    -573.806    -446.478
  P      974.396    -573.975    -445.737
  C      975.626    -572.460    -447.416
  O      975.282    -572.674    -446.048
  C      976.264    -571.072    -447.592
  O      975.300    -570.034    -447.304
  C      977.435    -570.785    -446.663
  O      978.609    -571.479    -447.018
  C      977.534    -569.272    -446.771
  O      978.242    -568.888    -447.962
  C      976.042    -568.863    -446.866
  N      975.509    -568.317    -445.641
  C      975.174    -566.961    -445.673
  O      975.420    -566.283    -446.680
  N      974.612    -566.418    -444.542
  C      974.503    -567.117    -443.466
  N      973.860    -566.529    -442.421
  C      974.981    -568.508    -443.360
  C      975.455    -569.038    -444.482
  O      975.078    -575.284    -445.994
  O      974.040    -573.805    -444.180
  H      974.427    -574.566    -443.689
  H      978.005    -567.963    -448.159
  H      974.938    -569.009    -442.399
  H      975.848    -570.062    -444.480
  H      975.915    -568.122    -447.676
  H      978.066    -568.811    -445.907
  H      977.151    -571.068    -445.620
  H      976.582    -570.974    -448.648
  H      973.521    -565.586    -442.524
  H      974.754    -572.536    -448.031
  H      973.449    -567.098    -441.650
  H      976.353    -573.253    -447.703
  P      979.755    -571.622    -445.939
  C      981.664    -570.444    -447.215
  O      980.758    -570.410    -446.125
  O      980.613    -572.897    -446.406
  O      979.244    -571.810    -444.519
  H      980.912    -573.398    -445.631
  H      981.992    -569.433    -447.450
  H      981.178    -570.848    -448.118
  H      982.517    -571.057    -446.972
  H      970.980    -573.411    -446.379
  H      971.969    -572.547    -445.226
  H      971.645    -574.248    -444.997

 3  4  5  6  7  8  9  10  11  12  13  24  27  28  29  30  32 0
 6-311+G(2d,p)
 ****
 34  35 0
 6-311+G(2d,p)
 ****
 1  2  14  15  16  17  18  19  20  21  22  23  25  26 0
 3-21G
 ****
 31  33  36  37  38  39  40  41  42  43  44  45  46 0
 3-21G
 ****


