%nproc=1
%NoSave
%Mem=1900MB
#P OB98/GEN NMR

erre ene a

0 1
  C      575.069    -307.387    -637.124
  O      576.406    -307.568    -636.710
  H      574.680    -308.306    -637.564
  H      574.463    -307.117    -636.255
  H      575.014    -306.576    -637.859
  P      577.443    -308.071    -637.833
  C      579.322    -307.043    -636.370
  O      578.881    -308.168    -637.120
  C      580.679    -307.340    -635.729
  O      581.674    -307.575    -636.763
  C      581.243    -306.209    -634.878
  O      580.647    -306.167    -633.584
  C      582.713    -306.625    -634.804
  O      582.876    -307.644    -633.798
  C      582.962    -307.212    -636.193
  N      587.275    -304.613    -637.210
  C      586.942    -305.445    -636.199
  N      585.771    -306.100    -635.986
  C      584.896    -305.826    -636.968
  C      585.102    -304.991    -638.058
  C      586.352    -304.364    -638.160
  N      586.682    -303.506    -639.196
  N      583.973    -304.970    -638.869
  C      583.104    -305.773    -638.274
  N      583.629    -306.312    -637.102
  O      577.594    -306.797    -638.797
  O      577.019    -309.277    -638.592
  H      582.796    -307.189    -632.938
  H      577.699    -307.105    -639.719
  H      587.723    -305.629    -635.457
  H      582.113    -305.987    -638.641
  H      583.553    -308.137    -636.134
  H      583.373    -305.788    -634.539
  H      581.151    -305.246    -635.389
  H      580.579    -308.263    -635.137
  H      578.595    -306.833    -635.575
  H      587.636    -303.245    -639.323
  H      585.969    -303.325    -639.906
  H      579.392    -306.184    -637.035
  P      580.493    -304.742    -632.886
  C      578.494    -305.885    -631.696
  O      579.587    -304.969    -631.580
  O      579.511    -303.928    -633.887
  O      581.776    -303.996    -632.666
  H      579.667    -302.973    -633.796
  H      577.977    -305.943    -630.761
  H      578.866    -306.853    -631.958
  H      577.822    -305.544    -632.455

 6  7  8  9  10  11  12  13  14  15  25  28  32  33  34  35 0
 6-311+G(2d,p)
 ****
 36  39  40 0
 6-311+G(2d,p)
 ****
 1  2  3  4  5  16  17  18  19  20  21  22  23  24 0
 3-21G
 ****
 26  27  29  30  31  37  38  41  42  43  44  45  46  47  48 0
 3-21G
 ****


