%nproc=1
%NoSave
%Mem=1900MB
#P OB98/GEN NMR

erre ene a

0 1
  C      221.329     -32.739    -345.552
  O      221.762     -32.916    -344.201
  P      223.262     -32.523    -343.800
  C      224.504     -31.441    -341.805
  O      223.286     -32.004    -342.282
  C      224.241     -30.618    -340.539
  O      223.419     -29.458    -340.820
  C      223.469     -31.390    -339.478
  O      224.146     -32.448    -338.841
  C      222.921     -30.280    -338.596
  O      223.893     -29.846    -337.644
  C      222.645     -29.165    -339.636
  N      221.220     -29.033    -339.951
  C      220.376     -28.816    -338.866
  O      220.767     -28.780    -337.701
  N      219.049     -28.677    -339.166
  C      218.494     -28.764    -340.406
  O      217.291     -28.657    -340.614
  C      219.432     -29.023    -341.512
  C      220.733     -29.140    -341.234
  O      223.992     -31.665    -344.779
  O      223.981     -33.960    -343.676
  H      223.562     -29.025    -337.240
  H      224.872     -33.881    -344.070
  H      218.424     -28.511    -338.392
  H      219.027     -29.105    -342.507
  H      221.442     -29.329    -342.036
  H      223.000     -28.196    -339.258
  H      222.042     -30.604    -338.031
  H      222.600     -31.855    -339.971
  H      225.194     -30.257    -340.151
  H      224.953     -30.809    -342.579
  H      225.220     -32.247    -341.615
  P      223.998     -33.981    -339.286
  C      225.851     -35.755    -339.697
  O      225.318     -34.774    -338.834
  O      223.482     -34.254    -340.658
  O      222.922     -34.521    -338.218
  H      222.375     -35.205    -338.647
  H      226.734     -36.195    -339.217
  H      226.155     -35.309    -340.644
  H      225.120     -36.544    -339.871
  H      220.309     -33.049    -345.643
  H      221.940     -33.329    -346.203
  H      221.414     -31.707    -345.821

 3  4  5  6  7  8  9  10  11  12  13  23  28  29  30  31  32 0
 6-311+G(2d,p)
 ****
 33  34 0
 6-311+G(2d,p)
 ****
 1  2  14  15  16  17  18  19  20  21  22  24  25  26  27 0
 3-21G
 ****
 35  36  37  38  39  40  41  42  43  44  45 0
 3-21G
 ****


