%nproc=1
%NoSave
%Mem=1900MB
#P OB98/GEN NMR

erre ene a

0 1
  C     -285.927    -406.843    -125.867
  O     -284.675    -406.564    -126.510
  P     -283.929    -405.196    -126.148
  C     -284.131    -404.096    -128.497
  O     -283.275    -404.613    -127.488
  C     -283.731    -404.645    -129.868
  O     -284.370    -405.914    -130.143
  C     -284.108    -403.730    -131.027
  O     -283.147    -402.703    -131.219
  C     -284.064    -404.706    -132.194
  O     -282.702    -404.903    -132.618
  C     -284.628    -405.988    -131.567
  N     -288.115    -408.445    -134.286
  C     -286.737    -408.539    -134.315
  N     -286.213    -409.423    -135.187
  N     -285.949    -407.826    -133.553
  C     -286.611    -407.000    -132.713
  C     -287.970    -406.815    -132.597
  C     -288.835    -407.594    -133.454
  O     -290.060    -407.543    -133.486
  N     -288.266    -405.881    -131.640
  C     -287.090    -405.512    -131.161
  N     -286.054    -406.152    -131.798
  O     -282.651    -405.695    -125.321
  O     -284.758    -404.234    -125.358
  H     -282.716    -405.621    -133.282
  H     -282.372    -405.003    -124.693
  H     -288.678    -409.008    -134.902
  H     -286.943    -404.794    -130.368
  H     -284.132    -406.891    -131.947
  H     -284.613    -404.336    -133.066
  H     -286.765    -410.036    -135.768
  H     -285.124    -403.333    -130.905
  H     -285.204    -409.531    -135.197
  H     -282.642    -404.797    -129.870
  H     -284.092    -403.004    -128.508
  H     -285.166    -404.350    -128.247
  P     -283.682    -401.223    -131.530
  C     -282.035    -401.285    -133.535
  O     -282.584    -400.539    -132.468
  O     -283.510    -400.482    -130.122
  O     -285.091    -401.161    -132.021
  H     -284.202    -399.803    -130.016
  H     -281.435    -400.620    -134.158
  H     -282.829    -401.723    -134.151
  H     -281.393    -402.081    -133.147
  H     -286.301    -407.786    -126.208
  H     -286.630    -406.073    -126.106
  H     -285.784    -406.878    -124.807

 3  4  5  6  7  8  9  10  11  12  23  26  30  31 0
 6-311+G(2d,p)
 ****
 33  35  36  37  38 0
 6-311+G(2d,p)
 ****
 1  2  13  14  15  16  17  18  19  20  21  22  24  25 0
 3-21G
 ****
 27  28  29  32  34  39  40  41  42  43  44  45  46  47  48  49 0
 3-21G
 ****


