%nproc=1
%NoSave
%Mem=1900MB
#P OB98/GEN NMR

erre ene a

0 1
  C     -472.206    -649.715     493.281
  O     -472.119    -648.713     494.299
  P     -473.173    -647.510     494.248
  C     -471.982    -645.703     492.810
  O     -472.977    -646.704     492.865
  C     -472.238    -644.698     491.679
  O     -473.543    -644.070     491.849
  C     -471.209    -643.565     491.607
  O     -471.095    -643.149     490.245
  C     -471.888    -642.459     492.401
  O     -471.311    -641.179     492.112
  C     -473.336    -642.642     491.952
  N     -476.554    -638.824     492.672
  C     -475.705    -639.095     491.606
  N     -475.744    -638.229     490.566
  N     -474.888    -640.110     491.569
  C     -474.987    -640.902     492.674
  C     -475.773    -640.750     493.779
  C     -476.646    -639.600     493.828
  O     -477.401    -639.295     494.740
  N     -475.566    -641.746     494.700
  C     -474.656    -642.514     494.131
  N     -474.288    -642.069     492.902
  O     -472.608    -646.488     495.359
  O     -474.580    -647.915     494.563
  H     -471.570    -640.956     491.188
  H     -473.179    -646.496     496.143
  H     -477.142    -638.012     492.654
  H     -474.207    -643.401     494.585
  H     -473.530    -642.201     490.980
  H     -471.775    -642.645     493.479
  H     -476.387    -637.449     490.510
  H     -470.220    -643.815     491.994
  H     -475.162    -638.432     489.763
  H     -472.272    -645.256     490.731
  H     -470.986    -646.169     492.656
  H     -471.918    -645.204     493.784
  P     -469.867    -643.738     489.416
  C     -468.465    -641.550     489.335
  O     -468.575    -642.880     489.827
  O     -470.174    -643.248     487.899
  O     -469.713    -645.211     489.491
  H     -469.745    -643.848     487.260
  H     -468.715    -640.839     490.150
  H     -469.114    -641.385     488.488
  H     -467.418    -641.390     489.039
  H     -471.446    -650.451     493.439
  H     -472.069    -649.261     492.322
  H     -473.168    -650.182     493.321

 3  4  5  6  7  8  9  10  11  12  23  26  30  31 0
 6-311+G(2d,p)
 ****
 33  35  36  37  38 0
 6-311+G(2d,p)
 ****
 1  2  13  14  15  16  17  18  19  20  21  22  24  25 0
 3-21G
 ****
 27  28  29  32  34  39  40  41  42  43  44  45  46  47  48  49 0
 3-21G
 ****


