%nproc=1
%NoSave
%Mem=1900MB
#P OB98/GEN NMR

erre ene a

0 1
  C      571.997      77.736     448.918
  O      573.115      76.896     449.227
  P      574.163      76.597     448.048
  C      575.928      78.131     449.215
  O      575.644      76.880     448.603
  C      577.110      78.009     450.169
  O      576.793      77.154     451.282
  C      578.333      77.378     449.519
  O      579.012      78.316     448.711
  C      579.134      76.919     450.734
  O      580.041      77.931     451.197
  C      578.035      76.640     451.796
  N      577.919      75.220     452.125
  C      578.691      74.786     453.218
  O      579.421      75.587     453.812
  N      578.625      73.467     453.564
  C      577.883      72.634     452.882
  N      577.869      71.343     453.283
  C      577.085      73.051     451.718
  C      577.151      74.351     451.393
  O      573.910      77.808     447.029
  O      573.975      75.260     447.395
  H      580.564      77.514     451.909
  H      574.063      77.504     446.109
  H      576.485      72.338     451.174
  H      576.591      74.741     450.549
  H      578.253      77.187     452.716
  H      579.740      76.036     450.500
  H      578.034      76.504     448.926
  H      577.359      79.017     450.560
  H      578.439      71.088     454.096
  H      575.040      78.496     449.754
  H      577.342      70.624     452.827
  H      576.122      78.877     448.431
  P      579.817      77.770     447.447
  C      578.563      78.699     445.402
  O      579.630      78.899     446.305
  O      578.864      76.607     446.905
  O      581.221      77.281     447.675
  H      579.273      76.117     446.187
  H      578.414      79.622     444.824
  H      577.636      78.480     445.934
  H      578.797      77.893     444.712
  H      571.385      77.850     449.788
  H      571.422      77.290     448.134
  H      572.349      78.696     448.601

 3  4  5  6  7  8  9  10  11  12  13  21  23  27  28  29  30  32 0
 6-311+G(2d,p)
 ****
 34  35 0
 6-311+G(2d,p)
 ****
 1  2  14  15  16  17  18  19  20  22  24  25  26 0
 3-21G
 ****
 31  33  36  37  38  39  40  41  42  43  44  45  46 0
 3-21G
 ****


