%nproc=1
%NoSave
%Mem=1900MB
#P OB98/GEN NMR

erre ene a

0 1
  C       -8.805     261.230     -28.323
  O      -10.221     261.343     -28.371
  P      -10.876     262.701     -27.828
  C      -11.256     263.775     -25.480
  O      -10.821     262.650     -26.225
  C      -11.572     263.352     -24.043
  O      -12.797     262.592     -24.004
  C      -10.507     262.463     -23.420
  O       -9.394     263.214     -22.980
  C      -11.285     261.802     -22.285
  O      -11.325     262.656     -21.127
  C      -12.691     261.659     -22.903
  N      -12.978     260.288     -23.324
  C      -13.274     259.386     -22.306
  O      -13.278     259.704     -21.111
  N      -13.532     258.103     -22.694
  C      -13.467     257.621     -23.977
  O      -13.652     256.443     -24.259
  C      -13.118     258.617     -25.007
  C      -12.889     259.875     -24.646
  O      -12.432     262.534     -28.161
  O      -10.308     263.946     -28.420
  H      -10.397     262.791     -20.850
  H      -12.814     263.402     -28.400
  H      -13.773     257.440     -21.977
  H      -13.062     258.269     -26.032
  H      -12.622     260.619     -25.383
  H      -13.458     261.962     -22.176
  H      -10.834     260.857     -21.970
  H      -10.201     261.685     -24.139
  H      -11.715     264.262     -23.436
  H      -12.148     264.196     -25.950
  H      -10.466     264.536     -25.490
  P       -7.935     262.666     -23.398
  C       -6.757     260.354     -23.090
  O       -7.855     261.192     -22.781
  O       -7.004     263.567     -22.457
  O       -7.660     262.794     -24.859
  H       -7.429     263.782     -21.609
  H       -5.831     260.929     -23.181
  H       -6.954     259.821     -24.024
  H       -6.640     259.620     -22.288
  H       -8.510     260.279     -28.714
  H       -8.474     261.317     -27.309
  H       -8.365     262.009     -28.909

 3  4  5  6  7  8  9  10  11  12  13  23  28  29  30  31  32 0
 6-311+G(2d,p)
 ****
 33  34 0
 6-311+G(2d,p)
 ****
 1  2  14  15  16  17  18  19  20  21  22  24  25  26 0
 3-21G
 ****
 27  35  36  37  38  39  40  41  42  43  44  45 0
 3-21G
 ****


