%nproc=1
%NoSave
%Mem=1900MB
#P OB98/GEN NMR

erre ene a

0 1
  C       57.047      85.577     245.555
  O       58.408      85.172     245.561
  P       59.427      85.946     244.588
  C       58.924      84.599     242.434
  O       58.804      85.847     243.111
  C       59.461      84.799     241.019
  O       58.522      85.628     240.272
  C       60.838      85.487     240.955
  O       61.659      84.815     239.984
  C       60.520      86.870     240.412
  O       61.636      87.453     239.741
  C       59.329      86.551     239.506
  N       57.908      89.322     235.527
  C       58.494      88.076     235.567
  N       58.793      87.512     234.374
  N       58.767      87.430     236.673
  C       58.380      88.103     237.789
  C       57.786      89.340     237.881
  C       57.549      90.068     236.649
  O       57.113      91.209     236.554
  N       57.533      89.679     239.189
  C       57.980      88.651     239.887
  N       58.546      87.690     239.087
  O       60.687      84.962     244.538
  O       59.825      87.314     245.034
  H       61.334      88.316     239.392
  H       61.493      85.444     244.810
  H       57.736      89.786     234.651
  H       57.941      88.572     240.971
  H       59.672      86.027     238.599
  H       60.227      87.526     241.241
  H       58.577      87.934     233.486
  H       61.361      85.531     241.915
  H       59.197      86.584     234.384
  H       59.489      83.823     240.517
  H       57.938      84.126     242.383
  H       59.599      83.953     243.005
  P       63.180      84.541     240.416
  C       63.916      86.686     239.126
  O       63.917      85.964     240.346
  O       63.779      83.733     239.168
  O       63.320      83.791     241.703
  H       64.540      83.190     239.445
  H       63.248      86.241     238.384
  H       64.930      86.705     238.724
  H       63.589      87.711     239.322
  H       56.493      84.977     246.247
  H       56.642      85.454     244.572
  H       56.980      86.606     245.842

 3  4  5  6  7  8  9  10  11  12  23  26  30  31  33  0
 6-311+G(2d,p)
 ****
 35  36  37  38 0
 6-311+G(2d,p)
 ****
 1  2  13  14  15  16  17  18  19  20  21  22  24  25  27  28  29 0
 3-21G
 ****
 32  34  39  40  41  42  43  44  45  46  47  48  49 0
 3-21G
 ****


