%nproc=1
%NoSave
%Mem=1900MB
#P OB98/GEN NMR

erre ene a

0 1
  C        8.950     -42.908     -28.649
  O       10.099     -42.518     -29.405
  P        9.975     -42.583     -31.004
  C       10.663     -44.996     -31.645
  O       11.057     -43.635     -31.552
  C       11.772     -45.934     -31.156
  O       12.983     -45.761     -31.944
  C       12.160     -45.715     -29.691
  O       12.528     -46.987     -29.142
  C       13.401     -44.851     -29.792
  O       14.173     -44.898     -28.594
  C       14.057     -45.459     -31.029
  N       18.908     -44.968     -32.536
  C       18.241     -45.989     -31.957
  N       16.949     -46.032     -31.564
  C       16.327     -44.880     -31.868
  C       16.878     -43.749     -32.448
  C       18.239     -43.818     -32.788
  N       18.928     -42.771     -33.353
  N       15.933     -42.748     -32.553
  C       14.835     -43.267     -32.041
  N       15.015     -44.560     -31.642
  O       10.555     -41.167     -31.472
  O        8.580     -42.790     -31.493
  H       14.777     -44.126     -28.590
  H        9.828     -40.599     -31.788
  H       18.822     -46.891     -31.781
  H       13.894     -42.751     -31.930
  H       14.588     -46.392     -30.804
  H       13.115     -43.807     -29.974
  H       11.380     -45.258     -29.074
  H       11.435     -46.969     -31.295
  H       10.416     -45.245     -32.681
  H       19.910     -42.892     -33.540
  H       18.452     -41.894     -33.503
  H        9.739     -45.140     -31.074
  P       11.406     -47.753     -28.294
  C       12.455     -47.092     -26.016
  O       12.084     -48.136     -26.896
  O       11.260     -49.159     -29.045
  O       10.104     -47.027     -28.208
  H       10.373     -49.532     -28.891
  H       12.212     -47.391     -24.993
  H       11.935     -46.156     -26.242
  H       13.532     -46.928     -26.093
  H        9.164     -42.819     -27.604
  H        8.701     -43.923     -28.877
  H        8.126     -42.273     -28.900

 3  4  5  6  7  8  9  10  11  12  22  25  29  30  31  32 0
 6-311+G(2d,p)
 ****
 33  36  37 0
 6-311+G(2d,p)
 ****
 1  2  13  14  15  16  17  18  19  20  21  23  24  26 0
 3-21G
 ****
 27  28  34  35  38  39  40  41  42  43  44  45  46  47  48 0
 3-21G
 ****


