%nproc=1
%NoSave
%Mem=1900MB
#P OB98/GEN NMR

erre ene a

0 1
  C       77.629     -96.897    -117.659
  O       76.796     -95.757    -117.635
  H       77.669     -97.282    -118.681
  H       77.223     -97.676    -117.009
  H       78.646     -96.644    -117.342
  P       76.724     -94.876    -116.295
  C       78.462     -93.307    -117.380
  O       78.089     -94.038    -116.218
  C       78.527     -91.814    -117.058
  O       79.608     -91.546    -116.138
  C       78.788     -90.928    -118.272
  O       77.619     -90.791    -119.063
  C       79.254     -89.645    -117.594
  O       78.138     -88.884    -117.114
  C       80.088     -90.208    -116.415
  N       81.528     -90.216    -116.675
  C       82.111     -88.986    -116.973
  O       81.464     -87.939    -117.056
  N       83.466     -89.002    -117.191
  C       84.257     -90.115    -117.220
  O       85.461     -90.081    -117.474
  C       83.583     -91.391    -116.937
  C       82.270     -91.384    -116.684
  O       76.372     -95.618    -115.046
  O       75.634     -93.751    -116.642
  H       77.540     -88.751    -117.875
  H       74.776     -93.991    -116.241
  H       83.904     -88.123    -117.417
  H       84.182     -92.297    -116.958
  H       81.758     -92.315    -116.472
  H       79.907     -89.618    -115.507
  H       79.818     -88.993    -118.263
  H       79.618     -91.334    -118.869
  H       77.585     -91.529    -116.566
  H       77.711     -93.481    -118.161
  H       79.435     -93.671    -117.730
  P       77.720     -90.412    -120.615
  C       77.911     -92.878    -121.298
  O       78.527     -91.596    -121.352
  O       78.234     -89.036    -120.899
  O       76.224     -90.596    -121.157
  H       75.814     -89.720    -121.305
  H       78.522     -93.589    -121.813
  H       76.949     -92.831    -121.764
  H       77.799     -93.177    -120.277

 6  7  8  9  10  11  12  13  14  15  16  26  31  32  33  34  35 0
 6-311+G(2d,p)
 ****
 36  37 0
 6-311+G(2d,p)
 ****
 1  2  3  4  5  17  18  19  20  21  22  23  24  25 0
 3-21G
 ****
 27  28  29  30  38  39  40  41  42  43  44  45 0
 3-21G
 ****


