%nproc=1
%NoSave
%Mem=1900MB
#P OB98/GEN NMR

erre ene a

0 1
  C      117.537    -357.730    -304.543
  O      118.077    -356.747    -303.683
  H      118.270    -357.954    -305.324
  H      116.627    -357.353    -305.015
  H      117.319    -358.652    -303.998
  P      117.328    -356.431    -302.303
  C      115.795    -354.502    -301.534
  O      116.230    -355.306    -302.623
  C      114.493    -353.781    -301.883
  O      114.646    -353.142    -303.189
  C      113.262    -354.705    -301.972
  O      112.120    -353.945    -301.552
  C      113.215    -354.990    -303.462
  O      111.992    -355.558    -303.848
  C      113.547    -353.595    -304.003
  N      113.888    -353.586    -305.418
  C      113.253    -352.647    -306.224
  O      112.446    -351.819    -305.807
  N      113.572    -352.694    -307.555
  C      114.439    -353.570    -308.143
  O      114.704    -353.555    -309.338
  C      115.057    -354.561    -307.243
  C      114.755    -354.522    -305.942
  O      118.211    -356.135    -301.136
  O      116.437    -357.739    -302.048
  H      116.899    -358.331    -301.428
  H      111.856    -356.419    -303.399
  H      113.122    -352.021    -308.154
  H      115.730    -355.283    -307.681
  H      115.192    -355.237    -305.250
  H      112.714    -352.906    -303.827
  H      113.997    -355.707    -303.734
  H      113.355    -355.600    -301.347
  H      114.326    -352.972    -301.153
  H      116.580    -353.770    -301.316
  H      115.647    -355.138    -300.654
  P      111.466    -354.065    -300.091
  C      110.200    -355.805    -298.673
  O      110.715    -355.477    -299.958
  O      110.608    -352.896    -299.724
  O      112.706    -354.191    -299.083
  H      112.488    -353.724    -298.252
  H      109.726    -356.763    -298.713
  H      109.486    -355.066    -298.376
  H      111.001    -355.833    -297.964

 6  7  8  9  10  11  12  13  14  15  16  27  31  32  33  34  35 0
 6-311+G(2d,p)
 ****
 36  37 0
 6-311+G(2d,p)
 ****
 1  2  3  4  5  17  18  19  20  21  22  23  24  25 0
 3-21G
 ****
 26  28  29  30  38  39  40  41  42  43  44  45 0
 3-21G
 ****


