%nproc=1
%NoSave
%Mem=1900MB
#P OB98/GEN NMR

erre ene a

0 1
  C     1114.000    -345.964     541.667
  O     1114.669    -345.737     542.899
  P     1115.884    -344.687     542.922
  C     1114.752    -343.090     544.585
  O     1115.298    -343.237     543.282
  C     1115.222    -341.769     545.229
  O     1114.943    -340.666     544.318
  C     1114.536    -341.405     546.543
  O     1115.100    -341.896     547.764
  C     1114.698    -339.884     546.569
  O     1116.019    -339.544     547.084
  C     1114.621    -339.500     545.100
  N     1111.537    -335.392     545.130
  C     1112.805    -335.585     545.579
  N     1113.546    -336.699     545.521
  C     1112.873    -337.708     544.942
  C     1111.582    -337.657     544.447
  C     1110.893    -336.436     544.559
  N     1109.614    -336.239     544.112
  N     1111.218    -338.880     543.905
  C     1112.271    -339.659     544.115
  N     1113.299    -338.984     544.724
  O     1116.810    -344.740     541.741
  O     1116.654    -345.096     544.271
  H     1116.106    -338.565     546.986
  H     1117.628    -344.993     544.112
  H     1113.280    -334.703     546.032
  H     1112.319    -340.705     543.861
  H     1115.339    -338.726     544.829
  H     1113.974    -339.388     547.232
  H     1113.473    -341.665     546.517
  H     1116.306    -341.820     545.372
  H     1115.039    -343.933     545.218
  H     1109.171    -335.342     544.264
  H     1109.090    -337.033     543.735
  H     1113.638    -343.129     544.488
  P     1114.251    -341.905     549.141
  C     1113.553    -344.398     548.795
  O     1113.148    -343.049     548.968
  O     1113.704    -340.584     549.546
  O     1115.296    -342.550     550.172
  H     1115.479    -343.486     550.024
  H     1112.669    -345.049     548.907
  H     1114.287    -344.686     549.537
  H     1113.961    -344.562     547.789
  H     1113.221    -346.683     541.811
  H     1114.698    -346.334     540.945
  H     1113.577    -345.046     541.316

 3  4  5  6  7  8  9  10  11  12  22  25  29  30  31  32 0
 6-311+G(2d,p)
 ****
 33  36  37 0
 6-311+G(2d,p)
 ****
 1  2  13  14  15  16  17  18  19  20  21  23  24  26 0
 3-21G
 ****
 27  28  34  35  38  39  40  41  42  43  44  45  46  47  48 0
 3-21G
 ****


