%nproc=1
%NoSave
%Mem=1900MB
#P OB98/GEN NMR

erre ene a

0 1
  C      115.094    -412.774     113.672
  O      113.959    -411.921     113.483
  P      114.094    -410.387     113.892
  C      113.819    -409.620     111.440
  O      114.615    -409.544     112.622
  C      114.678    -409.334     110.197
  O      115.687    -410.382     110.073
  C      113.915    -409.340     108.864
  O      113.338    -408.120     108.416
  C      115.033    -409.686     107.879
  O      115.766    -408.490     107.530
  C      115.931    -410.628     108.673
  N      117.396    -414.563     105.737
  C      117.825    -413.295     105.818
  N      117.386    -412.300     106.619
  C      116.399    -412.741     107.422
  C      115.859    -414.026     107.459
  C      116.398    -414.956     106.562
  N      115.952    -416.264     106.477
  N      114.858    -414.099     108.404
  C      114.774    -412.882     108.917
  N      115.706    -412.033     108.372
  O      114.805    -410.105     115.176
  O      112.557    -409.921     113.992
  H      115.988    -408.054     108.367
  H      112.465    -409.290     114.738
  H      118.634    -413.015     105.130
  H      114.084    -412.581     109.686
  H      116.995    -410.441     108.489
  H      114.642    -410.102     106.941
  H      113.153    -410.140     108.856
  H      115.200    -408.381     110.324
  H      113.009    -408.894     111.496
  H      116.356    -416.856     105.774
  H      115.174    -416.553     107.049
  H      113.362    -410.618     111.418
  P      111.999    -407.528     109.086
  C      113.374    -405.792     110.478
  O      112.466    -406.870     110.470
  O      110.877    -408.501     109.204
  O      111.699    -406.252     108.168
  H      112.338    -405.535     108.252
  H      113.392    -405.354     111.485
  H      113.063    -405.017     109.764
  H      114.383    -406.140     110.226
  H      114.851    -413.766     113.354
  H      115.362    -412.787     114.708
  H      115.917    -412.406     113.095

 3  4  5  6  7  8  9  10  11  12  22  25  29  30  31  32 0
 6-311+G(2d,p)
 ****
 33  36  37 0
 6-311+G(2d,p)
 ****
 1  2  13  14  15  16  17  18  19  20  21  23  24  26 0
 3-21G
 ****
 27  28  34  35  38  39  40  41  42  43  44  45  46  47  48 0
 3-21G
 ****


