%nproc=1
%NoSave
%Mem=1900MB
#P OB98/GEN NMR

erre ene a

0 1
  C      497.915     -49.885     743.132
  O      498.577     -48.684     742.777
  H      498.484     -50.377     743.936
  H      497.873     -50.561     742.270
  H      496.906     -49.674     743.492
  P      497.819     -47.721     741.740
  C      498.389     -49.279     739.705
  O      498.467     -47.985     740.293
  C      497.875     -49.172     738.272
  O      496.501     -48.708     738.247
  C      498.620     -48.154     737.424
  O      499.924     -48.577     737.083
  C      497.673     -48.044     736.233
  O      497.843     -49.151     735.339
  C      496.288     -48.106     736.938
  N      495.655     -46.800     737.039
  C      494.407     -46.684     736.392
  O      493.917     -47.643     735.814
  N      493.784     -45.467     736.425
  C      494.326     -44.474     737.045
  N      493.649     -43.277     737.034
  C      495.613     -44.560     737.756
  C      496.219     -45.744     737.708
  O      498.392     -46.275     742.128
  O      496.326     -47.821     741.755
  H      498.776     -49.121     735.042
  H      499.360     -46.234     742.130
  H      496.021     -43.696     738.282
  H      497.172     -45.889     738.194
  H      495.620     -48.782     736.385
  H      497.850     -47.139     735.649
  H      498.637     -47.182     737.926
  H      497.905     -50.172     737.822
  H      492.772     -43.251     736.523
  H      497.761     -49.947     740.299
  H      493.985     -42.428     737.457
  H      499.408     -49.700     739.704
  P      501.188     -48.105     737.948
  C      501.446     -46.008     736.464
  O      502.079     -47.187     736.980
  O      501.942     -49.206     738.634
  O      500.563     -47.023     738.956
  H      500.140     -46.253     738.528
  H      502.133     -45.480     735.836
  H      501.149     -45.378     737.276
  H      500.584     -46.286     735.895

 6  7  8  9  10  11  12  13  14  15  16  26  30  31  32  33  35 0
 6-311+G(2d,p)
 ****
 37  38 0
 6-311+G(2d,p)
 ****
 1  2  3  4  5  17  18  19  20  21  22  23  24  25 0
 3-21G
 ****
 27  28  29  34  36  39  40  41  42  43  44  45  46 0
 3-21G
 ****


