%nproc=1
%NoSave
%Mem=1900MB
#P OB98/GEN NMR

erre ene a

0 1
  C     -369.642    -302.810      42.173
  O     -368.827    -302.407      43.256
  H     -370.689    -302.753      42.480
  H     -369.409    -303.842      41.892
  H     -369.488    -302.149      41.314
  P     -367.245    -302.384      42.989
  C     -366.173    -304.385      44.273
  O     -366.571    -303.021      44.301
  C     -364.948    -304.592      45.171
  O     -363.812    -303.893      44.581
  C     -365.127    -304.037      46.595
  O     -364.336    -304.834      47.497
  C     -364.501    -302.658      46.472
  O     -364.218    -302.127      47.742
  C     -363.301    -302.998      45.592
  N     -358.978    -300.333      45.118
  C     -359.254    -301.509      45.725
  N     -360.434    -302.158      45.801
  C     -361.385    -301.482      45.131
  C     -361.258    -300.275      44.467
  C     -359.981    -299.686      44.477
  N     -359.702    -298.478      43.883
  N     -362.474    -299.889      43.928
  C     -363.314    -300.849      44.257
  N     -362.699    -301.834      44.983
  O     -366.881    -300.829      43.092
  O     -366.798    -302.980      41.700
  H     -365.034    -301.816      48.187
  H     -366.913    -300.419      42.209
  H     -358.413    -301.990      46.220
  H     -364.367    -300.880      44.009
  H     -362.512    -303.526      46.143
  H     -365.178    -301.964      45.964
  H     -366.166    -304.025      46.933
  H     -364.691    -305.657      45.187
  H     -365.935    -304.656      43.242
  H     -366.995    -305.010      44.630
  H     -358.768    -298.111      43.960
  H     -360.450    -297.969      43.432
  P     -364.948    -306.206      48.065
  C     -364.336    -305.749      50.563
  O     -364.228    -306.614      49.443
  O     -364.347    -307.287      47.039
  O     -366.439    -306.285      48.082
  H     -365.054    -307.902      46.765
  H     -363.803    -306.168      51.390
  H     -365.367    -305.632      50.825
  H     -363.920    -304.794      50.318

 6  7  8  9  10  11  12  13  14  15  25  28  32  33  34  35 0
 6-311+G(2d,p)
 ****
 36  37  40 0
 6-311+G(2d,p)
 ****
 1  2  3  4  5  16  17  18  19  20  21  22  23  24 0
 3-21G
 ****
 26  27  29  30  31  38  39 41  42  43  44  45  46  47  48 0
 3-21G
 ****


