%nproc=1
%NoSave
%Mem=1900MB
#P OB98/GEN NMR

erre ene a

0 1
  C       -6.457      62.051     -41.072
  O       -6.851      62.875     -42.156
  P       -8.171      62.456     -42.968
  C      -10.567      61.713     -42.296
  O       -9.212      61.865     -41.899
  C      -11.059      60.290     -42.024
  O      -10.403      59.381     -42.952
  C      -10.774      59.778     -40.602
  O      -11.873      58.934     -40.241
  C       -9.504      58.972     -40.804
  O       -9.217      58.072     -39.748
  C       -9.797      58.336     -42.159
  N       -7.188      58.129     -46.549
  C       -8.316      58.788     -46.203
  N       -8.948      58.802     -45.011
  C       -8.291      58.043     -44.118
  C       -7.143      57.299     -44.329
  C       -6.581      57.361     -45.615
  N       -5.434      56.680     -45.968
  N       -6.777      56.624     -43.184
  C       -7.691      56.952     -42.294
  N       -8.613      57.823     -42.807
  O       -7.701      61.160     -43.778
  O       -8.718      63.516     -43.874
  H       -8.505      57.458     -40.016
  H       -8.087      61.144     -44.674
  H       -8.772      59.384     -46.988
  H       -7.737      56.581     -41.280
  H      -10.520      57.515     -42.079
  H       -8.653      59.661     -40.877
  H      -10.681      60.580     -39.864
  H      -12.134      60.250     -42.232
  H      -10.655      61.906     -43.369
  H       -5.229      56.630     -46.955
  H       -5.114      55.958     -45.334
  H      -11.184      62.449     -41.771
  P      -12.328      58.870     -38.704
  C      -13.057      60.744     -37.105
  O      -12.251      60.397     -38.214
  O      -11.019      58.248     -38.025
  O      -13.587      58.124     -38.428
  H      -10.215      58.731     -38.286
  H      -12.835      61.775     -36.821
  H      -12.841      60.087     -36.258
  H      -14.114      60.672     -37.376
  H       -5.568      62.448     -40.627
  H       -6.266      61.060     -41.428
  H       -7.239      62.023     -40.343

 3  4  5  6  7  8  9  10  11  12  22  25  29  30  31  32 0
 6-311+G(2d,p)
 ****
 33  36  37 0
 6-311+G(2d,p)
 ****
 1  2  13  14  15  16  17  18  19  20  21  23  24  26 0
 3-21G
 ****
 27  28  34  35  38  39  40  41  42  43  44  45  46  47  48 0
 3-21G
 ****


