%nproc=1
%NoSave
%Mem=1900MB
#P OB98/GEN NMR

erre ene a

0 1
  C      -37.466      -4.733     -35.080
  O      -37.939      -4.929     -36.394
  H      -37.834      -5.552     -34.455
  H      -37.840      -3.792     -34.670
  H      -36.374      -4.742     -35.062
  P      -37.709      -3.771     -37.484
  C      -37.130      -5.481     -39.306
  O      -38.041      -4.467     -38.901
  C      -37.503      -6.840     -38.711
  O      -38.916      -7.095     -38.926
  C      -36.724      -8.015     -39.315
  O      -36.249      -8.861     -38.264
  C      -37.765      -8.746     -40.151
  O      -37.432     -10.117     -40.348
  C      -39.038      -8.468     -39.344
  N      -40.259      -8.693     -40.110
  C      -40.948      -9.882     -39.852
  O      -40.500     -10.694     -39.040
  N      -42.102     -10.143     -40.543
  C      -42.508      -9.316     -41.453
  N      -43.655      -9.637     -42.110
  C      -41.788      -8.071     -41.792
  C      -40.686      -7.822     -41.085
  O      -36.379      -3.100     -37.412
  O      -38.942      -2.773     -37.277
  H      -38.157     -10.543     -40.856
  H      -38.722      -1.892     -37.670
  H      -42.160      -7.419     -42.567
  H      -40.099      -6.927     -41.259
  H      -39.073      -9.097     -38.444
  H      -37.840      -8.270     -41.137
  H      -35.875      -7.706     -39.919
  H      -37.365      -6.789     -37.624
  H      -44.119     -10.497     -41.847
  H      -36.121      -5.192     -38.993
  H      -44.061      -9.071     -42.842
  H      -37.160      -5.552     -40.400
  P      -34.822      -8.475     -37.638
  C      -34.964      -9.373     -35.213
  O      -34.458      -9.573     -36.524
  O      -35.142      -7.156     -36.789
  O      -33.763      -8.232     -38.664
  H      -34.868      -6.363     -37.285
  H      -34.645     -10.176     -34.581
  H      -36.033      -9.347     -35.244
  H      -34.595      -8.446     -34.826

 6  7  8  9  10  11  12  13  14  15  16  26  30  31  32  33  35 0
 6-311+G(2d,p)
 ****
 37  38 0
 6-311+G(2d,p)
 ****
 1  2  3  4  5  17  18  19  20  21  22  23  24  25 0
 3-21G
 ****
 27  28  29  34  36  39  40  41  42  43  44  45  46 0
 3-21G
 ****


