%nproc=1
%NoSave
%Mem=1900MB
#P OB98/GEN NMR

erre ene a

0 1
  C      -16.361     134.461     167.528
  O      -15.303     133.538     167.354
  H      -17.300     133.969     167.260
  H      -16.216     135.324     166.873
  H      -16.418     134.786     168.570
  P      -13.853     134.003     167.872
  C      -14.055     132.484     170.005
  O      -13.341     132.819     168.827
  C      -13.731     131.054     170.440
  O      -14.107     130.148     169.375
  C      -12.250     130.823     170.750
  O      -12.152     129.916     171.854
  C      -11.723     130.160     169.488
  O      -10.550     129.389     169.740
  C      -12.951     129.362     169.023
  N      -12.915     129.075     167.589
  C      -12.190     127.947     167.189
  O      -11.599     127.261     168.025
  N      -12.111     127.650     165.853
  C      -12.652     128.447     164.980
  N      -12.521     128.104     163.669
  C      -13.384     129.675     165.355
  C      -13.483     129.919     166.659
  O      -14.233     135.179     168.888
  O      -12.913     134.400     166.782
  H       -9.900     129.964     170.202
  H      -15.005     134.981     169.443
  H      -13.803     130.314     164.590
  H      -14.009     130.796     167.022
  H      -13.018     128.410     169.564
  H      -11.465     130.923     168.743
  H      -11.707     131.738     170.978
  H      -14.361     130.805     171.303
  H      -11.996     127.265     163.455
  H      -15.133     132.578     169.836
  H      -12.853     128.676     162.907
  H      -13.769     133.193     170.788
  P      -11.796     130.491     173.307
  C      -14.151     131.345     173.916
  O      -13.109     130.433     174.229
  O      -11.062     131.792     173.329
  O      -10.886     129.323     173.937
  H      -10.169     129.742     174.452
  H      -14.963     131.206     174.599
  H      -14.491     131.169     172.917
  H      -13.784     132.347     173.997

 6  7  8  9  10  11  12  13  14  15  16  26  30  31  32  33  35 0
 6-311+G(2d,p)
 ****
 37  38 0
 6-311+G(2d,p)
 ****
 1  2  3  4  5  17  18  19  20  21  22  23  24  25 0
 3-21G
 ****
 27  28  29  34  36  39  40  41  42  43  44  45  46 0
 3-21G
 ****


