%nproc=1
%NoSave
%Mem=1900MB
#P OB98/GEN NMR

erre ene a

0 1
  C       -3.985     184.163    1215.587
  O       -4.439     184.868    1214.438
  H       -4.729     183.394    1215.841
  H       -3.885     184.840    1216.432
  H       -3.037     183.661    1215.371
  P       -3.473     185.937    1213.757
  C       -3.782     187.879    1215.443
  O       -4.044     187.385    1214.133
  C       -4.813     188.926    1215.834
  O       -4.854     189.988    1214.821
  C       -6.251     188.387    1215.910
  O       -6.447     187.649    1217.112
  C       -7.049     189.668    1215.814
  O       -7.112     190.345    1217.096
  C       -6.219     190.482    1214.798
  N       -6.766     190.437    1213.433
  C       -7.762     191.398    1213.135
  O       -8.188     192.192    1213.974
  N       -8.263     191.354    1211.867
  C       -7.955     190.404    1210.919
  O       -8.503     190.351    1209.837
  C       -6.935     189.419    1211.301
  C       -6.382     189.488    1212.525
  O       -3.181     185.729    1212.312
  O       -2.134     185.852    1214.643
  H       -7.337     189.655    1217.753
  H       -1.435     185.362    1214.139
  H       -8.977     192.010    1211.636
  H       -6.651     188.658    1210.580
  H       -5.639     188.754    1212.812
  H       -6.171     191.544    1215.109
  H       -8.078     189.494    1215.497
  H       -6.475     187.758    1215.036
  H       -4.519     189.392    1216.807
  H       -2.778     188.336    1215.456
  H       -3.783     187.035    1216.151
  P       -7.428     186.385    1217.124
  C       -9.514     187.864    1217.301
  O       -8.766     186.814    1217.889
  O       -6.821     185.091    1217.561
  O       -7.913     186.264    1215.578
  H       -7.642     185.404    1215.227
  H      -10.380     188.062    1217.897
  H       -9.817     187.578    1216.315
  H       -8.910     188.745    1217.247

 6  7  8  9  10  11  12  13  14  15  16  26  31  32  33  34  35 0
 6-311+G(2d,p)
 ****
 36  37 0
 6-311+G(2d,p)
 ****
 1  2  3  4  5  17  18  19  20  21  22  23  24  25 0
 3-21G
 ****
 27  28  29  30  38  39  40  41  42  43  44  45 0
 3-21G
 ****


