%nproc=1
%NoSave
%Mem=1900MB
#P OB98/GEN NMR

erre ene a

0 1
  C      747.843    -509.181    -401.043
  O      746.635    -508.496    -401.440
  P      745.221    -509.039    -400.902
  C      742.755    -508.252    -401.146
  O      744.049    -508.373    -401.741
  C      741.968    -507.101    -401.793
  O      742.536    -505.813    -401.491
  C      741.922    -507.176    -403.316
  O      740.910    -508.055    -403.756
  C      741.558    -505.749    -403.666
  O      740.126    -505.537    -403.500
  C      742.325    -504.931    -402.619
  N      744.924    -500.798    -404.123
  C      743.645    -500.956    -403.762
  N      743.024    -502.110    -403.388
  C      743.874    -503.132    -403.391
  C      745.211    -503.117    -403.777
  C      745.754    -501.870    -404.151
  N      747.066    -501.697    -404.534
  N      745.772    -504.377    -403.673
  C      744.785    -505.144    -403.267
  N      743.621    -504.446    -403.088
  O      745.096    -508.347    -399.446
  O      745.161    -510.518    -400.767
  H      739.918    -505.889    -402.594
  H      744.645    -508.937    -398.847
  H      743.024    -500.067    -403.754
  H      744.863    -506.204    -403.060
  H      741.777    -504.058    -402.250
  H      741.774    -505.474    -404.720
  H      742.910    -507.421    -403.742
  H      740.943    -507.125    -401.391
  H      742.855    -508.062    -400.078
  H      747.394    -500.774    -404.755
  H      747.687    -502.500    -404.523
  H      742.212    -509.213    -401.266
  P      741.354    -509.197    -404.823
  C      740.469    -511.643    -405.035
  O      740.156    -510.265    -404.855
  O      742.531    -509.950    -404.074
  O      741.762    -508.656    -406.159
  H      743.182    -510.283    -404.739
  H      739.601    -512.226    -404.716
  H      741.352    -511.910    -404.440
  H      740.665    -511.827    -406.086
  H      748.689    -508.697    -401.484
  H      747.802    -510.198    -401.374
  H      747.933    -509.156    -399.977

 3  4  5  6  7  8  9  10  11  12  22  25  29  30  31  32 0
 6-311+G(2d,p)
 ****
 33  36  37 0
 6-311+G(2d,p)
 ****
 1  2  13  14  15  16  17  18  19  20  21  23  24  26 0
 3-21G
 ****
 27  28  34  35  38  39  40  41  42  43  44  45  46  47  48 0
 3-21G
 ****


