%nproc=1
%NoSave
%Mem=1900MB
#P OB98/GEN NMR

erre ene a

0 1
  C      250.454    -163.951    -158.069
  O      251.809    -163.611    -158.332
  P      252.095    -162.540    -159.496
  C      251.967    -162.600    -162.089
  O      251.902    -163.337    -160.874
  C      251.557    -163.474    -163.269
  O      250.175    -163.867    -163.141
  C      251.665    -162.795    -164.626
  O      252.988    -162.823    -165.136
  C      250.758    -163.681    -165.464
  O      251.454    -164.884    -165.835
  C      249.630    -164.005    -164.480
  N      245.503    -162.977    -167.317
  C      246.504    -163.868    -167.475
  N      247.575    -164.075    -166.680
  C      247.573    -163.214    -165.649
  C      246.640    -162.225    -165.381
  C      245.556    -162.125    -166.263
  N      244.520    -161.237    -166.085
  N      246.977    -161.540    -164.234
  C      248.086    -162.108    -163.811
  N      248.482    -163.131    -164.627
  O      253.679    -162.330    -159.409
  O      251.348    -161.256    -159.368
  H      250.857    -165.389    -166.419
  H      253.922    -161.466    -159.792
  H      246.430    -164.508    -168.351
  H      248.629    -161.819    -162.922
  H      249.272    -165.037    -164.578
  H      250.434    -163.201    -166.392
  H      251.259    -161.778    -164.596
  H      252.170    -164.384    -163.243
  H      252.994    -162.254    -162.241
  H      243.696    -161.352    -166.653
  H      244.459    -160.749    -165.199
  H      251.311    -161.727    -162.012
  P      253.425    -161.601    -166.082
  C      252.332    -160.537    -168.186
  O      252.436    -161.667    -167.339
  O      254.833    -162.083    -166.669
  O      253.520    -160.288    -165.380
  H      255.378    -161.314    -166.921
  H      251.880    -160.848    -169.132
  H      253.314    -160.107    -168.393
  H      251.689    -159.786    -167.719
  H      250.414    -164.669    -157.276
  H      250.013    -164.368    -158.950
  H      249.915    -163.072    -157.782

 3  4  5  6  7  8  9  10  11  12  22  25  29  30  31  32 0
 6-311+G(2d,p)
 ****
 33  36  37 0
 6-311+G(2d,p)
 ****
 1  2  13  14  15  16  17  18  19  20  21  23  24  26 0
 3-21G
 ****
 27  28  34  35  38  39  40  41  42  43  44  45  46  47  48 0
 3-21G
 ****


