%nproc=1
%NoSave
%Mem=1900MB
#P OB98/GEN NMR

erre ene a

0 1
  C     -293.706     -26.637     286.371
  O     -292.672     -25.864     285.792
  H     -293.256     -27.483     286.899
  H     -294.367     -27.024     285.590
  H     -294.273     -26.032     287.084
  P     -293.126     -24.553     284.982
  C     -292.512     -23.173     287.085
  O     -293.509     -23.496     286.126
  C     -292.738     -21.764     287.641
  O     -293.999     -21.690     288.330
  C     -291.689     -21.308     288.641
  O     -290.521     -20.840     287.984
  C     -292.434     -20.176     289.340
  O     -292.388     -18.989     288.526
  C     -293.877     -20.712     289.401
  N     -294.528     -20.038     294.454
  C     -293.981     -19.249     293.505
  N     -293.798     -19.510     292.193
  C     -294.258     -20.735     291.881
  C     -294.836     -21.655     292.742
  C     -294.980     -21.264     294.086
  N     -295.545     -22.073     295.051
  N     -295.181     -22.811     292.067
  C     -294.857     -22.572     290.806
  N     -294.265     -21.343     290.653
  O     -294.144     -24.771     283.916
  O     -291.710     -24.003     284.470
  H     -293.001     -18.336     288.923
  H     -291.030     -24.121     285.156
  H     -293.643     -18.271     293.842
  H     -295.049     -23.242     289.981
  H     -294.613     -19.920     289.208
  H     -291.992     -19.917     290.305
  H     -291.464     -22.094     289.377
  H     -292.796     -21.071     286.789
  H     -291.515     -23.238     286.636
  H     -295.451     -21.785     296.011
  H     -295.764     -23.025     294.801
  H     -292.574     -23.912     287.892
  P     -289.130     -20.710     288.769
  C     -288.086     -22.686     287.492
  O     -288.462     -22.175     288.766
  O     -289.223     -20.073     290.114
  O     -288.187     -19.880     287.783
  H     -287.631     -19.264     288.287
  H     -287.656     -23.659     287.611
  H     -287.369     -22.031     287.043
  H     -288.950     -22.752     286.865

 6  7  8  9  10  11  12  13  14  15  25  28  32  33  34  35 0
 6-311+G(2d,p)
 ****
 36  39  40 0
 6-311+G(2d,p)
 ****
 1  2  3  4  5  16  17  18  19  20  21  22  23  24 0
 3-21G
 ****
 26  27  29  30  31  37  38  41  42  43  44  45  46  47 0
 3-21G
 ****
 48 0
 3-21G
 ****


