%nproc=1
%NoSave
%Mem=1900MB
#P OB98/GEN NMR

erre ene a

0 1
  C     -403.119    -889.242     439.895
  O     -402.836    -890.422     439.164
  H     -403.876    -888.662     439.354
  H     -402.213    -888.632     439.993
  H     -403.508    -889.492     440.884
  P     -401.750    -891.412     439.805
  C     -403.113    -893.622     439.570
  O     -402.012    -892.842     439.133
  C     -403.881    -894.192     438.375
  O     -404.620    -893.102     437.735
  C     -402.983    -894.812     437.290
  O     -403.742    -895.842     436.630
  C     -402.781    -893.632     436.346
  O     -402.259    -894.062     435.110
  C     -404.204    -893.062     436.357
  N     -407.032    -889.792     433.624
  C     -407.260    -891.072     434.024
  N     -406.469    -891.862     434.756
  C     -405.331    -891.222     435.112
  C     -404.965    -889.932     434.784
  C     -405.874    -889.192     434.003
  N     -405.642    -887.902     433.585
  N     -403.726    -889.622     435.327
  C     -403.357    -890.712     435.961
  N     -404.293    -891.712     435.844
  O     -402.268    -891.592     441.308
  O     -400.334    -890.942     439.753
  H     -401.393    -894.502     435.233
  H     -401.811    -890.982     441.898
  H     -408.204    -891.492     433.697
  H     -402.433    -890.842     436.504
  H     -404.892    -893.692     435.773
  H     -402.069    -892.912     436.761
  H     -402.057    -895.232     437.687
  H     -404.627    -894.902     438.735
  H     -403.774    -892.992     440.169
  H     -402.749    -894.452     440.196
  H     -406.336    -887.452     433.014
  H     -404.777    -887.462     433.846
  P     -402.956    -896.922     435.737
  C     -403.581    -899.092     437.072
  O     -403.707    -898.342     435.869
  O     -401.627    -897.172     436.596
  O     -402.610    -896.492     434.341
  H     -400.890    -897.442     435.996
  H     -404.140    -900.000     436.986
  H     -403.958    -898.517     437.892
  H     -402.550    -899.322     437.242

 6  7  8  9  10  11  12  13  14  15  25  28  32  33  34  35 0
 6-311+G(2d,p)
 ****
 36  37  40 0
 6-311+G(2d,p)
 ****
 1  2  3  4  5  16  17  18  19  20  21  22  23  24 0
 3-21G
 ****
 26  27  29  30  31  38  39 41  42  43  44  45  46  47  48 0
 3-21G
 ****


