%nproc=1
%NoSave
%Mem=1900MB
#P OB98/GEN NMR

erre ene a

0 1
  C      470.883    -435.856    -503.384
  O      469.717    -435.035    -503.437
  P      469.115    -434.615    -504.865
  C      467.062    -436.139    -504.466
  O      468.098    -435.745    -505.367
  C      465.756    -436.357    -505.240
  O      465.222    -435.107    -505.741
  C      465.925    -437.225    -506.478
  O      466.210    -438.602    -506.253
  C      464.689    -436.895    -507.282
  O      463.560    -437.651    -506.848
  C      464.496    -435.394    -506.949
  N      464.926    -434.513    -508.045
  C      463.988    -434.285    -509.045
  O      462.873    -434.809    -509.065
  N      464.394    -433.457    -510.057
  C      465.633    -432.876    -510.183
  O      465.942    -432.158    -511.126
  C      466.588    -433.179    -509.110
  C      466.202    -433.965    -508.102
  O      470.117    -434.162    -505.872
  O      468.129    -433.408    -504.481
  H      462.774    -437.297    -507.295
  H      468.224    -432.715    -505.169
  H      463.725    -433.269    -510.794
  H      467.566    -432.734    -509.173
  H      466.882    -434.196    -507.303
  H      463.437    -435.183    -506.748
  H      464.829    -437.111    -508.348
  H      466.789    -436.833    -507.038
  H      465.013    -436.776    -504.551
  H      466.928    -435.374    -503.699
  H      467.379    -437.056    -503.950
  P      466.514    -439.639    -507.446
  C      468.907    -438.669    -507.710
  O      467.702    -439.038    -508.335
  O      465.347    -440.231    -508.161
  O      467.272    -440.820    -506.638
  H      467.055    -441.661    -507.079
  H      469.600    -438.266    -508.462
  H      469.378    -439.527    -507.236
  H      468.715    -437.888    -506.967
  H      471.145    -436.038    -502.363
  H      471.692    -435.359    -503.877
  H      470.686    -436.787    -503.873

 3  4  5  6  7  8  9  10  11  12  13  23  28  29  30  31  32 0
 6-311+G(2d,p)
 ****
 33  34 0
 6-311+G(2d,p)
 ****
 1  2  14  15  16  17  18  19  20  21  22  24  25  26  27 0
 3-21G
 ****
 35  36  37  38  39  40  41  42  43  44  45 0
 3-21G
 ****


