%nproc=1
%NoSave
%Mem=1900MB
#P OB98/GEN NMR

erre ene a

0 1
  C     -894.840    -156.328     -36.767
  O     -893.540    -155.871     -37.208
  P     -892.560    -155.018     -36.288
  C     -893.940    -152.843     -36.103
  O     -893.380    -153.963     -35.417
  C     -894.360    -151.727     -35.161
  O     -893.180    -151.173     -34.462
  C     -895.080    -150.546     -35.843
  O     -896.110    -150.122     -34.942
  C     -893.970    -149.505     -35.956
  O     -894.450    -148.172     -36.138
  C     -893.260    -149.741     -34.584
  N     -891.970    -149.125     -34.473
  C     -891.750    -148.231     -33.393
  O     -892.650    -147.920     -32.618
  N     -890.520    -147.668     -33.219
  C     -889.550    -147.971     -34.057
  N     -888.330    -147.414     -33.821
  C     -889.720    -148.908     -35.208
  C     -890.930    -149.439     -35.333
  O     -891.430    -154.389     -37.039
  O     -891.990    -156.057     -35.187
  H     -891.060    -155.833     -35.002
  H     -894.860    -147.881     -35.312
  H     -888.900    -149.123     -35.860
  H     -891.140    -150.125     -36.140
  H     -893.940    -149.378     -33.788
  H     -893.340    -149.757     -36.778
  H     -895.520    -150.791     -36.804
  H     -894.980    -152.158     -34.370
  H     -888.230    -146.792     -33.031
  H     -894.820    -153.178     -36.678
  H     -887.500    -147.581     -34.408
  H     -893.190    -152.485     -36.823
  P     -897.610    -150.656     -35.142
  C     -898.920    -148.558     -35.972
  O     -898.300    -149.790     -36.308
  O     -898.360    -150.116     -33.835
  O     -897.770    -152.148     -35.222
  H     -899.140    -150.687     -33.630
  H     -898.620    -147.811     -36.689
  H     -898.620    -148.202     -34.965
  H     -900.000    -148.667     -36.007
  H     -895.311    -156.878     -37.555
  H     -895.446    -155.485     -36.509
  H     -894.725    -156.959     -35.911

 3  4  5  6  7  8  9  10  11  12  13  24  27  28  29  30  32 0
 6-311+G(2d,p)
 ****
 34  35 0
 6-311+G(2d,p)
 ****
 1  2  14  15  16  17  18  19  20  21  22  23  25  26 0
 3-21G
 ****
 31  33  36  37  38  39  40  41  42  43  44  45  46 0
 3-21G
 ****


