%nproc=1
%NoSave
%Mem=1900MB
#P OB98/GEN NMR

erre ene a

0 1
  C      181.799     291.484    -472.504
  O      182.491     290.261    -472.774
  P      183.903     290.311    -473.528
  C      186.278     289.314    -473.259
  O      184.983     289.462    -472.694
  C      187.334     289.240    -472.151
  O      187.485     290.516    -471.477
  C      186.964     288.261    -471.039
  O      186.984     286.890    -471.368
  C      187.845     288.721    -469.891
  O      189.163     288.181    -469.997
  C      187.870     290.255    -470.109
  N      187.008     290.971    -469.165
  C      187.571     292.086    -468.558
  O      188.730     292.446    -468.743
  N      186.750     292.763    -467.682
  C      185.479     292.414    -467.352
  O      184.803     293.047    -466.547
  C      184.948     291.210    -468.005
  C      185.725     290.554    -468.874
  O      184.363     291.660    -473.964
  O      183.651     289.366    -474.807
  H      189.105     287.226    -469.811
  H      184.082     289.789    -475.577
  H      187.142     293.578    -467.238
  H      183.941     290.906    -467.762
  H      185.354     289.661    -469.369
  H      188.895     290.639    -469.991
  H      187.450     288.403    -468.919
  H      185.922     288.471    -470.743
  H      188.297     288.990    -472.596
  H      186.491     290.153    -473.933
  H      186.290     288.413    -473.885
  P      185.655     286.024    -471.608
  C      185.183     284.805    -473.853
  O      185.983     284.887    -472.694
  O      184.372     286.762    -471.772
  O      185.586     285.164    -470.249
  H      184.645     285.014    -470.027
  H      185.541     283.966    -474.465
  H      185.262     285.722    -474.441
  H      184.141     284.624    -473.587
  H      180.880     291.270    -471.999
  H      181.591     291.987    -473.425
  H      182.408     292.110    -471.886

 3  4  5  6  7  8  9  10  11  12  13  23  28  29  30  31  32 0
 6-311+G(2d,p)
 ****
 33  34 0
 6-311+G(2d,p)
 ****
 1  2  14  15  16  17  18  19  20  21  22  24  25  26  27 0
 3-21G
 ****
 35  36  37  38  39  40  41  42  43  44  45 0
 3-21G
 ****


