%nproc=1
%NoSave
%Mem=1900MB
#P OB98/GEN NMR

erre ene a

0 1
  C      254.302    -132.334     204.838
  O      255.199    -133.201     205.545
  P      254.717    -134.503     206.357
  C      256.028    -133.910     208.510
  O      255.835    -134.847     207.457
  C      257.501    -133.843     208.920
  O      258.250    -133.056     207.965
  C      257.778    -133.175     210.259
  O      257.406    -133.986     211.356
  C      259.279    -132.905     210.152
  O      260.044    -134.056     210.532
  C      259.457    -132.629     208.647
  N      259.755    -131.235     208.352
  C      260.995    -130.974     207.755
  O      261.805    -131.887     207.574
  N      261.287    -129.682     207.392
  C      260.466    -128.726     207.697
  N      260.801    -127.469     207.296
  C      259.215    -128.941     208.446
  C      258.925    -130.208     208.737
  O      254.354    -135.660     205.483
  O      253.460    -134.020     207.224
  H      252.877    -134.779     207.402
  H      259.755    -134.788     209.952
  H      258.578    -128.110     208.718
  H      258.016    -130.460     209.276
  H      260.257    -133.263     208.239
  H      259.593    -132.076     210.797
  H      257.238    -132.215     210.299
  H      257.901    -134.869     208.919
  H      261.662    -127.358     206.773
  H      255.435    -134.235     209.374
  H      260.220    -126.657     207.459
  H      255.665    -132.927     208.194
  P      256.615    -133.267     212.554
  C      258.497    -133.726     214.288
  O      257.136    -133.900     213.931
  O      255.123    -133.834     212.414
  O      256.631    -131.773     212.504
  H      254.484    -133.123     212.603
  H      258.579    -133.751     215.377
  H      258.889    -132.766     213.924
  H      259.083    -134.542     213.868
  H      254.858    -131.542     204.380
  H      253.591    -131.921     205.523
  H      253.788    -132.892     204.083

 3  4  5  6  7  8  9  10  11  12  13  24  27  28  29  30  32 0
 6-311+G(2d,p)
 ****
 34  35 0
 6-311+G(2d,p)
 ****
 1  2  14  15  16  17  18  19  20  21  22  23  25  26 0
 3-21G
 ****
 31  33  36  37  38  39  40  41  42  43  44  45  46 0
 3-21G
 ****


