%nproc=1
%NoSave
%Mem=1900MB
#P OB98/GEN NMR

erre ene a

0 1
  C      -58.689      68.576      43.255
  O      -59.261      67.632      42.372
  H      -57.611      68.610      43.079
  H      -58.869      68.284      44.294
  H      -59.110      69.567      43.067
  P      -60.841      67.389      42.507
  C      -61.363      67.151      39.994
  O      -61.215      66.477      41.237
  C      -61.336      66.150      38.839
  O      -59.971      65.687      38.660
  C      -62.213      64.915      39.077
  O      -62.789      64.505      37.836
  C      -61.215      63.866      39.536
  O      -61.686      62.539      39.322
  C      -59.984      64.252      38.718
  N      -56.771      60.304      38.806
  C      -57.802      60.613      37.991
  N      -58.594      61.705      38.025
  C      -58.195      62.550      38.993
  C      -57.166      62.373      39.899
  C      -56.437      61.175      39.787
  N      -55.408      60.834      40.633
  N      -57.099      63.444      40.768
  C      -58.065      64.259      40.385
  N      -58.766      63.749      39.328
  O      -61.671      68.616      42.674
  O      -60.913      66.342      43.715
  H      -62.583      62.463      39.710
  H      -60.262      65.623      43.605
  H      -58.026      59.885      37.214
  H      -58.305      65.211      40.847
  H      -60.020      63.861      37.692
  H      -61.019      63.983      40.608
  H      -62.999      65.083      39.813
  H      -61.620      66.668      37.916
  H      -60.557      67.882      39.863
  H      -54.938      59.956      40.479
  H      -55.138      61.471      41.367
  H      -62.318      67.686      40.013
  P      -64.360      64.710      37.601
  C      -64.276      64.608      35.028
  O      -64.771      64.007      36.216
  O      -64.863      66.103      37.772
  O      -65.012      63.728      38.688
  H      -65.776      64.174      39.104
  H      -64.616      64.052      34.179
  H      -63.206      64.610      35.048
  H      -64.633      65.614      34.962

 6  7  8  9  10  11  12  13  14  15  25  28  32  33  34  35 0
 6-311+G(2d,p)
 ****
 36  39  40 0
 6-311+G(2d,p)
 ****
 1  2  3  4  5  16  17  18  19  20  21  22  23  24 0
 3-21G
 ****
 26  27  29  30  31  37  38  41  42  43  44  45  46  47 0
 3-21G
 ****
 48 0
 3-21G
 ****


