%nproc=1
%NoSave
%Mem=1900MB
#P OB98/GEN NMR

erre ene a

0 1
  C     -303.365    -666.477    -226.586
  O     -304.722    -666.133    -226.404
  H     -302.864    -665.661    -227.116
  H     -303.284    -667.389    -227.191
  H     -302.876    -666.629    -225.618
  P     -305.605    -667.118    -225.497
  C     -306.477    -665.393    -223.721
  O     -306.767    -666.235    -224.827
  C     -307.656    -664.461    -223.447
  O     -307.790    -663.465    -224.494
  C     -309.008    -665.159    -223.445
  O     -309.190    -665.974    -222.306
  C     -309.942    -663.953    -223.497
  O     -310.079    -663.342    -222.212
  C     -309.175    -663.023    -224.474
  N     -309.756    -663.019    -225.809
  C     -310.869    -662.182    -225.988
  O     -311.288    -661.504    -225.057
  N     -311.483    -662.169    -227.214
  C     -311.025    -662.887    -228.181
  N     -311.683    -662.837    -229.369
  C     -309.836    -663.764    -228.046
  C     -309.265    -663.783    -226.842
  O     -304.634    -667.422    -224.258
  O     -306.119    -668.338    -226.195
  H     -310.614    -662.533    -222.344
  H     -304.297    -666.615    -223.827
  H     -309.484    -664.348    -228.887
  H     -308.392    -664.399    -226.658
  H     -309.174    -661.992    -224.099
  H     -310.947    -664.234    -223.828
  H     -309.141    -665.738    -224.365
  H     -307.471    -663.939    -222.501
  H     -312.504    -662.237    -229.425
  H     -305.562    -664.815    -223.896
  H     -311.434    -663.383    -230.182
  H     -306.300    -666.038    -222.851
  P     -309.941    -667.388    -222.431
  C     -308.309    -668.591    -220.845
  O     -309.643    -668.173    -221.060
  O     -309.628    -668.164    -223.662
  O     -311.491    -666.999    -222.276
  H     -311.715    -666.566    -221.435
  H     -308.241    -669.098    -219.905
  H     -307.665    -667.737    -220.837
  H     -308.012    -669.254    -221.630

 6  7  8  9  10  11  12  13  14  15  16  26  30  31  32  33  35 0
 6-311+G(2d,p)
 ****
 37  38 0
 6-311+G(2d,p)
 ****
 1  2  3  4  5  17  18  19  20  21  22  23  24  25 0
 3-21G
 ****
 27  28  29  34  36  39  40  41  42  43  44  45  46 0
 3-21G
 ****


