%nproc=1
%NoSave
%Mem=1900MB
#P OB98/GEN NMR

erre ene a

0 1
  C     -433.581     367.357     153.397
  O     -434.498     366.322     153.702
  H     -432.944     367.024     152.569
  H     -432.949     367.586     154.257
  H     -434.122     368.255     153.081
  P     -435.371     366.461     155.045
  C     -434.089     364.687     156.419
  O     -434.374     366.076     156.245
  C     -433.790     364.364     157.885
  O     -432.690     365.175     158.356
  C     -434.947     364.667     158.829
  O     -436.054     363.812     158.679
  C     -434.247     364.765     160.177
  O     -434.086     363.508     160.828
  C     -432.857     365.327     159.780
  N     -432.690     366.718     160.198
  C     -431.732     366.947     161.180
  O     -431.068     366.046     161.702
  N     -431.588     368.246     161.582
  C     -432.330     369.304     161.147
  O     -432.180     370.445     161.582
  C     -433.346     368.999     160.127
  C     -433.481     367.739     159.708
  O     -436.667     365.703     155.063
  O     -435.548     368.044     155.218
  H     -433.617     363.681     161.670
  H     -436.281     368.251     155.849
  H     -430.893     368.431     162.287
  H     -433.957     369.819     159.761
  H     -434.225     367.489     158.950
  H     -432.060     364.739     160.253
  H     -434.795     365.414     160.867
  H     -435.307     365.678     158.603
  H     -433.491     363.312     157.955
  H     -433.207     364.452     155.812
  H     -434.938     364.089     156.063
  P     -437.545     364.343     158.459
  C     -438.811     364.580     160.719
  O     -437.974     365.202     159.749
  O     -438.535     363.373     157.889
  O     -437.311     365.495     157.349
  H     -438.100     365.505     156.770
  H     -439.010     365.269     161.513
  H     -438.319     363.715     161.112
  H     -439.733     364.289     160.260

 6  7  8  9  10  11  12  13  14  15  16  26  31  32  33  34  35 0
 6-311+G(2d,p)
 ****
 36  37 0
 6-311+G(2d,p)
 ****
 1  2  3  4  5  17  18  19  20  21  22  23  24  25 0
 3-21G
 ****
 27  28  29  30  38  39  40  41  42  43  44  45 0
 3-21G
 ****


