%nproc=1
%NoSave
%Mem=1900MB
#P OB98/GEN NMR

erre ene a

0 1
  C     -155.091     396.873     -83.533
  O     -153.917     397.655     -83.608
  H     -155.653     397.167     -82.641
  H     -154.839     395.812     -83.452
  H     -155.714     397.045     -84.415
  P     -152.889     397.312     -84.791
  C     -150.848     398.527     -83.735
  O     -151.424     397.292     -84.145
  C     -149.912     398.289     -82.556
  O     -150.687     397.946     -81.376
  C     -148.947     397.127     -82.750
  O     -147.837     397.473     -83.560
  C     -148.546     396.835     -81.315
  O     -147.484     397.692     -80.875
  C     -149.848     397.124     -80.539
  N     -150.522     395.894     -80.131
  C     -149.917     395.199     -79.087
  O     -148.883     395.571     -78.526
  N     -150.517     394.018     -78.728
  C     -151.606     393.461     -79.333
  O     -152.063     392.372     -78.998
  C     -152.192     394.233     -80.442
  C     -151.629     395.391     -80.790
  O     -152.899     398.640     -85.679
  O     -153.239     396.101     -85.591
  H     -153.395     398.483     -86.504
  H     -146.665     397.328     -81.268
  H     -150.096     393.503     -77.974
  H     -153.055     393.818     -80.944
  H     -152.033     395.975     -81.610
  H     -149.633     397.712     -79.638
  H     -148.203     395.808     -81.205
  H     -149.478     396.257     -83.158
  H     -149.364     399.216     -82.349
  H     -151.642     399.219     -83.426
  H     -150.310     398.966     -84.582
  P     -147.152     396.307     -84.430
  C     -144.877     397.121     -83.382
  O     -145.722     396.044     -83.756
  O     -146.827     397.102     -85.780
  O     -148.027     395.108     -84.589
  H     -146.702     398.053     -85.621
  H     -143.976     396.735     -82.953
  H     -145.379     397.736     -82.664
  H     -144.639     397.704     -84.247

 6  7  8  9  10  11  12  13  14  15  16  27  31  32  33  34  35 0
 6-311+G(2d,p)
 ****
 36  37 0
 6-311+G(2d,p)
 ****
 1  2  3  4  5  17  18  19  20  21  22  23  24  25 0
 3-21G
 ****
 26  28  29  30  38  39  40  41  42  43  44  45 0
 3-21G
 ****


