%nproc=1
%NoSave
%Mem=1900MB
#P OB98/GEN NMR

erre ene a

0 1
  C       80.223     -23.462     -78.887
  O       79.415     -23.490     -77.728
  H       80.978     -22.681     -78.771
  H       79.617     -23.237     -79.769
  H       80.726     -24.424     -79.017
  P       78.172     -24.503     -77.734
  C       75.909     -23.245     -77.978
  O       77.027     -23.830     -78.634
  C       76.270     -21.836     -77.514
  O       76.956     -21.131     -78.576
  C       75.068     -20.970     -77.164
  O       74.539     -21.259     -75.880
  C       75.680     -19.583     -77.241
  O       76.335     -19.222     -76.014
  C       76.693     -19.725     -78.391
  N       76.212     -19.090     -79.616
  C       75.798     -17.766     -79.487
  O       75.829     -17.148     -78.424
  N       75.310     -17.181     -80.623
  C       75.149     -17.791     -81.831
  O       74.651     -17.224     -82.797
  C       75.586     -19.195     -81.906
  C       76.087     -19.773     -80.809
  O       77.602     -24.390     -76.243
  O       78.509     -25.911     -78.101
  H       77.833     -25.193     -75.741
  H       77.006     -19.914     -75.855
  H       75.007     -16.221     -80.551
  H       75.471     -19.710     -82.851
  H       76.406     -20.809     -80.833
  H       77.649     -19.261     -78.120
  H       74.919     -18.830     -77.432
  H       74.297     -21.063     -77.938
  H       76.951     -21.914     -76.656
  H       75.638     -23.848     -77.104
  H       75.061     -23.225     -78.667
  P       73.010     -20.860     -75.595
  C       72.854     -18.720     -74.072
  O       73.009     -19.272     -75.369
  O       72.814     -21.480     -74.135
  O       72.069     -21.371     -76.632
  H       73.655     -21.526     -73.645
  H       72.880     -17.652     -74.133
  H       73.649     -19.061     -73.442
  H       71.916     -19.031     -73.662

 6  7  8  9  10  11  12  13  14  15  16  27  31  32  33  34  35 0
 6-311+G(2d,p)
 ****
 36  37 0
 6-311+G(2d,p)
 ****
 1  2  3  4  5  17  18  19  20  21  22  23  24  25 0
 3-21G
 ****
 26  28  29  30  38  39  40  41  42  43  44  45 0
 3-21G
 ****


