%nproc=1
%NoSave
%Mem=1900MB
#P OB98/GEN NMR

erre ene a

0 1
  C      110.948    -184.164     -86.739
  O      111.389    -183.385     -85.639
  P      110.402    -183.046     -84.429
  C      109.846    -180.638     -85.105
  O      109.342    -181.963     -84.955
  C      108.913    -179.614     -84.457
  O      107.761    -179.410     -85.322
  C      108.380    -180.011     -83.075
  O      108.251    -178.799     -82.314
  C      107.001    -180.566     -83.388
  O      106.135    -180.567     -82.260
  C      106.582    -179.625     -84.510
  N      101.515    -179.981     -85.109
  C      102.267    -179.397     -84.152
  N      103.612    -179.369     -84.047
  C      104.180    -180.026     -85.075
  C      103.543    -180.698     -86.108
  C      102.140    -180.643     -86.113
  N      101.354    -181.201     -87.101
  N      104.474    -181.296     -86.939
  C      105.643    -180.996     -86.416
  N      105.517    -180.175     -85.329
  O      111.071    -182.688     -83.142
  O      109.516    -184.373     -84.267
  H      105.377    -181.154     -82.456
  H      109.798    -184.863     -83.471
  H      101.719    -178.881     -83.365
  H      106.602    -181.341     -86.775
  H      106.249    -178.651     -84.133
  H      107.091    -181.601     -83.746
  H      109.015    -180.733     -82.547
  H      109.447    -178.655     -84.403
  H      109.925    -180.428     -86.178
  H      100.366    -180.990     -87.080
  H      101.788    -181.463     -87.984
  H      110.845    -180.571     -84.662
  P      108.974    -178.668     -80.891
  C      106.853    -179.404     -79.659
  O      108.220    -179.679     -79.900
  O      109.130    -177.271     -80.383
  O      110.394    -179.375     -81.122
  H      111.012    -179.108     -80.416
  H      106.768    -178.617     -78.906
  H      106.368    -180.307     -79.284
  H      106.345    -179.083     -80.574
  H      111.749    -184.279     -87.439
  H      110.125    -183.674     -87.216
  H      110.637    -185.127     -86.392

 3  4  5  6  7  8  9  10  11  12  22  25  29  30  31  32 0
 6-311+G(2d,p)
 ****
 33  36  37 0
 6-311+G(2d,p)
 ****
 1  2  13  14  15  16  17  18  19  20  21  23  24  26 0
 3-21G
 ****
 27  28  34  35  38  39  40  41  42  43  44  45  46  47  48 0
 3-21G
 ****


