%nproc=1
%NoSave
%Mem=1900MB
#P OB98/GEN NMR

erre ene a

0 1
  C      100.585     -79.777     281.353
  O       99.601     -78.814     280.969
  P       99.530     -77.384     281.692
  C       98.711     -78.288     283.942
  O       99.752     -77.585     283.271
  C       98.587     -77.921     285.427
  O       98.689     -76.488     285.620
  C       97.284     -78.372     286.095
  O       97.623     -78.682     287.450
  C       96.433     -77.119     286.024
  O       95.346     -77.140     286.939
  C       97.490     -76.034     286.273
  N       97.067     -74.725     285.788
  C       97.442     -73.617     286.549
  O       98.047     -73.768     287.610
  N       97.077     -72.365     286.116
  C       96.321     -72.241     285.071
  N       95.971     -70.978     284.707
  C       95.830     -73.392     284.285
  C       96.248     -74.589     284.691
  O       98.338     -76.558     281.333
  O      100.880     -76.651     281.224
  H       94.734     -77.861     286.674
  H      100.728     -75.688     281.194
  H       95.181     -73.243     283.435
  H       95.948     -75.495     284.177
  H       97.709     -75.951     287.346
  H       96.015     -77.013     285.015
  H       96.817     -79.229     285.605
  H       99.444     -78.370     285.946
  H       96.307     -70.220     285.286
  H       98.908     -79.361     283.856
  H       95.298     -70.778     283.981
  H       97.763     -78.092     283.431
  P       97.679     -80.187     287.990
  C       95.461     -80.539     289.217
  O       96.173     -80.730     288.007
  O       98.420     -80.367     289.275
  O       98.360     -81.027     286.805
  H       98.682     -81.877     287.157
  H       94.402     -80.748     289.043
  H       95.565     -79.508     289.570
  H       95.839     -81.227     289.978
  H      100.471     -80.660     280.759
  H      100.459     -80.023     282.387
  H      101.562     -79.369     281.200

 3  4  5  6  7  8  9  10  11  12  13  23  27  28  29  30  32 0
 6-311+G(2d,p)
 ****
 34  35 0
 6-311+G(2d,p)
 ****
 1  2  14  15  16  17  18  19  20  21  22  24  25  26 0
 3-21G
 ****
 31  33  36  37  38  39  40  41  42  43  44  45  46 0
 3-21G
 ****


