%nproc=1
%NoSave
%Mem=1900MB
#P OB98/GEN NMR

erre ene a

0 1
  C       15.072     -42.995    -112.240
  O       14.812     -42.989    -113.629
  H       15.679     -43.872    -112.003
  H       14.135     -43.058    -111.681
  H       15.623     -42.099    -111.943
  P       14.067     -41.723    -114.269
  C       11.655     -40.808    -114.282
  O       12.501     -41.912    -113.989
  C       10.334     -40.954    -113.532
  O       10.561     -40.899    -112.106
  C        9.329     -39.850    -113.833
  O        8.717     -40.044    -115.093
  C        8.394     -39.982    -112.643
  O        7.453     -41.048    -112.844
  C        9.380     -40.322    -111.504
  N        9.720     -39.162    -110.682
  C        8.952     -38.966    -109.538
  O        8.008     -39.691    -109.226
  N        9.287     -37.880    -108.773
  C       10.216     -36.933    -109.092
  O       10.416     -35.930    -108.416
  C       10.980     -37.178    -110.324
  C       10.703     -38.264    -111.049
  O       14.422     -41.410    -115.684
  O       14.462     -40.519    -113.289
  H        6.982     -40.845    -113.675
  H       15.132     -39.956    -113.720
  H        8.733     -37.714    -107.949
  H       11.735     -36.457    -110.602
  H       11.251     -38.458    -111.962
  H        8.954     -41.092    -110.850
  H        7.816     -39.074    -112.468
  H        9.821     -38.872    -113.788
  H        9.911     -41.941    -113.768
  H       11.462     -40.790    -115.360
  H       12.165     -39.883    -113.996
  P        8.052     -38.805    -115.856
  C        5.988     -37.316    -115.505
  O        6.590     -38.578    -115.240
  O        8.107     -38.868    -117.346
  O        8.870     -37.541    -115.313
  H        9.314     -37.097    -116.061
  H        5.021     -37.279    -115.048
  H        5.888     -37.184    -116.562
  H        6.602     -36.537    -115.105

 6  7  8  9  10  11  12  13  14  15  16  26  31  32  33  34  35 0
 6-311+G(2d,p)
 ****
 36  37 0
 6-311+G(2d,p)
 ****
 1  2  3  4  5  17  18  19  20  21  22  23  24  25 0
 3-21G
 ****
 27  28  29  30  38  39  40  41  42  43  44  45 0
 3-21G
 ****


