%nproc=1
%NoSave
%Mem=1900MB
#P OB98/GEN NMR

erre ene a

0 1
  C     -271.027    -584.086    -897.322
  O     -272.306    -584.663    -897.182
  H     -271.014    -583.468    -898.222
  H     -270.270    -584.870    -897.422
  H     -270.790    -583.451    -896.462
  P     -272.517    -585.632    -895.922
  C     -274.511    -587.064    -895.052
  O     -274.087    -585.987    -895.882
  C     -276.018    -586.995    -894.832
  O     -276.380    -585.766    -894.152
  C     -276.853    -587.061    -896.102
  O     -277.024    -588.398    -896.542
  C     -278.148    -586.412    -895.642
  O     -278.975    -587.357    -894.932
  C     -277.646    -585.308    -894.712
  N     -280.038    -581.303    -896.662
  C     -280.539    -582.410    -896.012
  N     -281.892    -582.502    -895.922
  N     -279.794    -583.370    -895.522
  C     -278.472    -583.170    -895.712
  C     -277.843    -582.104    -896.312
  C     -278.678    -581.034    -896.832
  O     -278.299    -579.989    -897.362
  N     -276.483    -582.244    -896.302
  C     -276.282    -583.420    -895.732
  N     -277.458    -584.018    -895.362
  O     -272.341    -584.654    -894.652
  O     -271.592    -586.796    -895.842
  H     -279.328    -588.015    -895.562
  H     -271.975    -585.157    -893.912
  H     -280.656    -580.602    -897.002
  H     -275.317    -583.861    -895.542
  H     -278.323    -585.135    -893.862
  H     -278.739    -586.052    -896.492
  H     -282.486    -582.000    -896.552
  H     -276.390    -586.438    -896.892
  H     -282.266    -583.323    -895.472
  H     -276.288    -587.825    -894.162
  H     -273.996    -586.969    -894.082
  H     -274.234    -588.010    -895.512
  P     -277.976    -588.664    -897.812
  C     -278.664    -590.810    -899.092
  O     -277.689    -590.167    -898.272
  O     -277.297    -587.784    -898.962
  O     -279.405    -588.299    -897.602
  H     -277.922    -587.639    -899.692
  H     -278.339    -591.804    -899.319
  H     -278.786    -590.258    -900.000
  H     -279.598    -590.850    -898.570

 6  7  8  9  10  11  12  13  14  15  26  29  33  34 0
 6-311+G(2d,p)
 ****
 36  38  39  40  41 0
 6-311+G(2d,p)
 ****
 1  2  3  4  5  16  17  18  19  20  21  22  23  24  25 0
 3-21G
 ****
 27  28  30  31  32  35  37  42  43  44  45  46  47 0
 3-21G
 ****
 48  49 0
 3-21G
 ****


