%nproc=1
%NoSave
%Mem=1900MB
#P OB98/GEN NMR

erre ene a

0 1
  C       44.869     282.303     -15.102
  O       45.527     281.039     -15.208
  P       47.087     281.018     -14.832
  C       46.715     279.314     -12.911
  O       47.218     280.585     -13.293
  C       47.326     278.865     -11.583
  O       48.765     278.924     -11.593
  C       46.883     279.713     -10.398
  O       45.591     279.316      -9.973
  C       47.970     279.411      -9.376
  O       47.689     278.192      -8.657
  C       49.221     279.240     -10.253
  N       52.783     281.858      -7.773
  C       52.001     280.802      -7.345
  N       52.216     280.367      -6.086
  N       51.092     280.225      -8.087
  C       50.986     280.764      -9.324
  C       51.722     281.789      -9.871
  C       52.724     282.421      -9.039
  O       53.456     283.343      -9.380
  N       51.372     282.016     -11.179
  C       50.341     281.215     -11.375
  N       50.108     280.389     -10.303
  O       47.488     282.567     -14.835
  O       47.919     280.232     -15.790
  H       47.042     278.379      -7.955
  H       48.067     282.757     -15.597
  H       53.462     282.270      -7.157
  H       49.749     281.176     -12.277
  H       49.835     278.396      -9.916
  H       48.051     280.199      -8.623
  H       52.901     280.762      -5.461
  H       46.904     280.777     -10.666
  H       51.658     279.589      -5.756
  H       47.031     277.821     -11.421
  H       46.935     278.576     -13.686
  H       45.624     279.375     -12.838
  P       44.591     280.455      -9.452
  C       42.818     280.014     -11.294
  O       43.714     280.933     -10.701
  O       45.568     281.693      -9.168
  O       43.819     280.088      -8.228
  H       45.331     282.107      -8.317
  H       41.977     280.567     -11.719
  H       42.436     279.293     -10.565
  H       43.332     279.478     -12.096
  H       43.840     282.194     -15.376
  H       45.340     283.006     -15.757
  H       44.934     282.656     -14.094

 3  4  5  6  7  8  9  10  11  12  23  26  30  31 0
 6-311+G(2d,p)
 ****
 33  35  36  37  38 0
 6-311+G(2d,p)
 ****
 1  2  13  14  15  16  17  18  19  20  21  22  24  25 0
 3-21G
 ****
 27  28  29  32  34  39  40  41  42  43  44  45  46  47  48  49 0
 3-21G
 ****


