%nproc=1
%NoSave
%Mem=1900MB
#P OB98/GEN NMR

erre ene a

0 1
  C      112.144      25.428     240.920
  O      111.554      26.557     241.535
  H      112.974      25.737     240.277
  H      112.533      24.764     241.700
  H      111.399      24.885     240.329
  P      110.953      27.678     240.558
  C      108.914      26.124     240.103
  O      109.981      26.883     239.555
  C      107.772      26.059     239.096
  O      106.636      25.376     239.676
  C      107.255      27.426     238.664
  O      108.048      28.010     237.644
  C      105.875      27.056     238.147
  O      105.988      26.451     236.845
  C      105.427      26.009     239.180
  N      101.807      25.146     242.694
  C      102.348      24.352     241.748
  N      103.327      24.652     240.865
  C      103.751      25.913     241.035
  C      103.293      26.838     241.961
  C      102.266      26.411     242.824
  N      101.688      27.227     243.768
  N      103.960      28.039     241.817
  C      104.809      27.837     240.831
  N      104.699      26.578     240.305
  O      112.190      28.074     239.623
  O      110.323      28.856     241.226
  H      105.090      26.191     236.572
  H      112.001      28.902     239.143
  H      101.946      23.345     241.689
  H      105.515      28.568     240.459
  H      104.794      25.227     238.744
  H      105.216      27.920     238.045
  H      107.147      28.104     239.520
  H      108.109      25.471     238.233
  H      108.568      26.609     241.025
  H      100.862      26.880     244.232
  H      101.920      28.210     243.770
  H      109.269      25.117     240.342
  P      107.483      29.341     236.938
  C      108.958      30.898     238.402
  O      107.644      30.523     238.011
  O      105.906      29.086     236.903
  O      108.047      29.610     235.582
  H      105.501      29.503     236.118
  H      108.904      31.692     239.117
  H      109.505      31.227     237.543
  H      109.453      30.057     238.840

 6  7  8  9  10  11  12  13  14  15  25  28  32  33  34  35 0
 6-311+G(2d,p)
 ****
 36  39  40 0
 6-311+G(2d,p)
 ****
 1  2  3  4  5  16  17  18  19  20  21  22  23  24 0
 3-21G
 ****
 26  27  29  30  31  37  38  41  42  43  44  45  46  47 0
 3-21G
 ****
 48 0
 3-21G
 ****


