%nproc=1
%NoSave
%Mem=1900MB
#P OB98/GEN NMR

erre ene a

0 1
  C       19.554      -5.202     -35.906
  O       19.749      -6.355     -35.113
  P       20.379      -7.685     -35.750
  C       19.885      -8.978     -37.927
  O       19.361      -8.123     -36.914
  C       18.778      -9.835     -38.541
  O       18.259     -10.765     -37.570
  C       17.579      -9.039     -39.036
  O       17.870      -8.413     -40.272
  C       16.515     -10.126     -39.109
  O       16.617     -10.873     -40.331
  C       16.874     -11.012     -37.896
  N       16.000     -10.774     -36.755
  C       15.146     -11.828     -36.410
  O       15.136     -12.865     -37.074
  N       14.287     -11.660     -35.351
  C       14.269     -10.532     -34.711
  N       13.388     -10.423     -33.679
  C       15.130      -9.386     -35.063
  C       15.961      -9.575     -36.086
  O       20.733      -8.754     -34.773
  O       21.639      -7.132     -36.570
  H       16.673     -10.213     -41.050
  H       22.379      -6.878     -35.966
  H       15.071      -8.463     -34.508
  H       16.627      -8.785     -36.414
  H       16.806     -12.074     -38.163
  H       15.502      -9.713     -39.069
  H       17.291      -8.295     -38.283
  H       19.215     -10.413     -39.367
  H       12.795     -11.221     -33.489
  H       20.636      -9.631     -37.472
  H       13.267      -9.580     -33.140
  H       20.377      -8.371     -38.694
  P       17.333      -6.935     -40.564
  C       15.123      -5.688     -40.186
  O       15.742      -6.945     -40.375
  O       17.820      -6.315     -41.831
  O       17.840      -6.098     -39.295
  H       18.205      -5.246     -39.602
  H       14.056      -5.785     -40.403
  H       15.554      -4.933     -40.849
  H       15.246      -5.374     -39.146
  H       19.127      -4.425     -35.307
  H       18.893      -5.433     -36.715
  H       20.495      -4.875     -36.297

 3  4  5  6  7  8  9  10  11  12  13  23  27  28  29  30  32 0
 6-311+G(2d,p)
 ****
 34  35 0
 6-311+G(2d,p)
 ****
 1  2  14  15  16  17  18  19  20  21  22  24  25  26 0
 3-21G
 ****
 31  33  36  37  38  39  40  41  42  43  44  45  46 0
 3-21G
 ****


