%nproc=1
%NoSave
%Mem=1900MB
#P OB98/GEN NMR

erre ene a

0 1
  C      344.221     -69.278     119.266
  O      343.317     -69.849     120.194
  P      342.211     -70.862     119.630
  C      340.500     -68.897     119.492
  O      341.128     -69.989     118.833
  C      339.570     -68.168     118.516
  O      340.345     -67.434     117.541
  C      338.683     -69.105     117.708
  O      337.571     -69.553     118.470
  C      338.296     -68.221     116.530
  O      337.189     -67.368     116.867
  C      339.579     -67.393     116.322
  N      340.359     -67.851     115.174
  C      339.948     -67.383     113.928
  O      338.969     -66.647     113.783
  N      340.671     -67.821     112.853
  C      341.707     -68.708     112.892
  O      342.281     -69.108     111.886
  C      342.084     -69.191     114.232
  C      341.399     -68.752     115.292
  O      341.425     -71.337     120.942
  O      342.760     -72.018     118.863
  H      337.039     -66.783     116.099
  H      341.157     -72.272     120.847
  H      340.403     -67.476     111.947
  H      342.904     -69.895     114.301
  H      341.650     -69.106     116.284
  H      339.323     -66.338     116.161
  H      337.992     -68.808     115.656
  H      339.269     -69.957     117.340
  H      338.966     -67.453     119.083
  H      341.264     -68.210     119.860
  H      339.934     -69.277     120.349
  P      337.090     -71.065     118.237
  C      335.620     -70.460     116.159
  O      336.737     -71.152     116.670
  O      335.676     -71.050     118.983
  O      338.061     -72.073     118.754
  H      335.239     -70.180     118.926
  H      335.468     -69.504     116.673
  H      334.724     -71.078     116.279
  H      335.779     -70.270     115.095
  H      344.897     -68.627     119.781
  H      343.676     -68.719     118.534
  H      344.774     -70.056     118.782

 3  4  5  6  7  8  9  10  11  12  13  23  28  29  30  31  32 0
 6-311+G(2d,p)
 ****
 33  34 0
 6-311+G(2d,p)
 ****
 1  2  14  15  16  17  18  19  20  21  22  24  25  26 0
 3-21G
 ****
 27  35  36  37  38  39  40  41  42  43  44  45 0
 3-21G
 ****


