%nproc=1
%NoSave
%Mem=1900MB
#P OB98/GEN NMR

erre ene a

0 1
  C      422.697     232.021     263.345
  O      422.914     230.728     263.890
  H      421.658     232.310     263.541
  H      422.853     232.005     262.262
  H      423.361     232.756     263.804
  P      424.395     230.123     263.878
  C      426.332     229.962     262.180
  O      424.983     230.348     262.404
  C      426.406     229.038     260.949
  O      425.686     229.612     259.855
  C      427.832     228.786     260.461
  O      428.505     227.877     261.294
  C      427.555     228.291     259.050
  O      427.190     226.900     259.060
  C      426.344     229.172     258.633
  N      426.733     230.307     257.795
  C      426.786     230.081     256.422
  O      426.545     228.980     255.910
  N      427.138     231.158     255.643
  C      427.558     232.373     256.110
  O      427.957     233.275     255.381
  C      427.517     232.549     257.570
  C      427.121     231.526     258.330
  O      424.530     228.731     264.402
  O      425.233     231.166     264.763
  H      427.857     226.447     259.614
  H      425.421     230.777     265.637
  H      427.191     231.004     254.657
  H      427.836     233.503     257.979
  H      427.079     231.638     259.417
  H      425.610     228.574     258.081
  H      428.422     228.388     258.396
  H      428.370     229.737     260.394
  H      425.925     228.089     261.222
  H      426.693     229.434     263.059
  H      426.942     230.861     262.015
  P      430.060     227.568     261.042
  C      431.464     227.013     258.954
  O      430.191     226.898     259.584
  O      430.775     226.838     262.154
  O      430.698     229.019     260.818
  H      431.389     229.185     261.501
  H      431.433     226.535     257.997
  H      432.207     226.544     259.564
  H      431.707     228.047     258.828

 6  7  8  9  10  11  12  13  14  15  16  26  31  32  33  34  35 0
 6-311+G(2d,p)
 ****
 36  37 0
 6-311+G(2d,p)
 ****
 1  2  3  4  5  17  18  19  20  21  22  23  24  25 0
 3-21G
 ****
 27  28  29  30  38  39  40  41  42  43  44  45 0
 3-21G
 ****


