%nproc=1
%NoSave
%Mem=1900MB
#P OB98/GEN NMR

erre ene a

0 1
  C      -83.286      98.193     -47.981
  O      -82.398      97.946     -49.067
  P      -82.857      96.878     -50.171
  C      -82.756      98.234     -52.415
  O      -82.160      97.278     -51.558
  C      -81.998      98.326     -53.752
  O      -80.633      98.736     -53.478
  C      -81.879      97.017     -54.525
  O      -81.551      97.317     -55.885
  C      -80.689      96.368     -53.852
  O      -80.129      95.333     -54.657
  C      -79.766      97.575     -53.574
  N      -78.965      97.436     -52.339
  C      -77.921      96.514     -52.326
  O      -77.623      95.802     -53.284
  N      -77.235      96.396     -51.148
  C      -77.455      97.122     -50.018
  O      -76.869      96.916     -48.963
  C      -78.472      98.176     -50.129
  C      -79.175      98.277     -51.258
  O      -84.403      97.215     -50.397
  O      -82.644      95.461     -49.760
  H      -79.275      95.084     -54.237
  H      -84.961      96.538     -49.970
  H      -76.521      95.684     -51.104
  H      -78.629      98.820     -49.272
  H      -79.944      99.039     -51.349
  H      -79.062      97.734     -54.401
  H      -81.003      95.912     -52.909
  H      -82.768      96.383     -54.487
  H      -82.457      99.103     -54.373
  H      -82.780      99.209     -51.924
  H      -83.798      97.954     -52.608
  P      -82.320      96.512     -57.038
  C      -84.526      97.615     -57.761
  O      -83.118      97.606     -57.898
  O      -83.117      95.332     -56.594
  O      -81.132      96.088     -58.030
  H      -81.427      95.354     -58.599
  H      -84.890      98.631     -57.930
  H      -84.835      97.288     -56.764
  H      -84.964      96.951     -58.511
  H      -82.855      98.922     -47.326
  H      -83.452      97.284     -47.442
  H      -84.218      98.559     -48.358

 3  4  5  6  7  8  9  10  11  12  13  23  28  29  30  31  32 0
 6-311+G(2d,p)
 ****
 33  34 0
 6-311+G(2d,p)
 ****
 1  2  14  15  16  17  18  19  20  21  22  24  25  26  27 0
 3-21G
 ****
 35  36  37  38  39  40  41  42  43  44  45 0
 3-21G
 ****


