%nproc=1
%NoSave
%Mem=1900MB
#P OB98/GEN NMR

erre ene a

0 1
  C      191.640     -50.381     407.709
  O      190.360     -50.137     407.161
  H      192.395     -49.954     407.040
  H      191.820     -51.455     407.805
  H      191.726     -49.901     408.690
  P      189.114     -50.785     407.947
  C      188.897     -52.716     406.210
  O      189.179     -52.341     407.552
  C      187.929     -53.901     406.200
  O      187.445     -54.157     404.869
  C      188.546     -55.217     406.677
  O      188.645     -55.293     408.086
  C      187.534     -56.205     406.122
  O      186.351     -56.195     406.947
  C      187.246     -55.600     404.731
  N      188.108     -56.136     403.678
  C      187.877     -57.468     403.305
  O      187.004     -58.138     403.857
  N      188.681     -58.032     402.333
  C      189.613     -57.329     401.779
  N      190.388     -57.937     400.831
  C      189.876     -55.924     402.126
  C      189.101     -55.394     403.077
  O      187.839     -50.266     407.132
  O      189.057     -50.512     409.417
  H      186.083     -55.262     407.039
  H      187.023     -50.711     407.465
  H      190.677     -55.371     401.646
  H      189.234     -54.364     403.386
  H      186.199     -55.751     404.445
  H      187.907     -57.233     406.108
  H      189.517     -55.400     406.191
  H      187.056     -53.626     406.820
  H      190.226     -58.918     400.656
  H      189.835     -52.996     405.720
  H      191.244     -57.535     400.481
  H      188.444     -51.875     405.667
  P      190.103     -55.612     408.708
  C      189.340     -57.970     409.503
  O      190.267     -57.214     408.726
  O      189.918     -55.239     410.251
  O      191.237     -54.862     408.071
  H      190.728     -54.812     410.608
  H      189.571     -59.011     409.420
  H      188.347     -57.795     409.144
  H      189.406     -57.671     410.528

 6  7  8  9  10  11  12  13  14  15  16  26  30  31  32  33  35 0
 6-311+G(2d,p)
 ****
 37  38 0
 6-311+G(2d,p)
 ****
 1  2  3  4  5  17  18  19  20  21  22  23  24  25 0
 3-21G
 ****
 27  28  29  34  36  39  40  41  42  43  44  45  46 0
 3-21G
 ****


