%nproc=1
%NoSave
%Mem=1900MB
#P OB98/GEN NMR

erre ene a

0 1
  C      -76.560     290.935     712.003
  O      -75.741     290.642     710.876
  P      -74.803     289.327     710.989
  C      -76.149     287.852     709.311
  O      -74.939     288.535     709.588
  C      -76.359     287.724     707.800
  O      -76.964     288.916     707.249
  C      -75.070     287.517     707.008
  O      -74.614     286.180     707.067
  C      -75.531     287.882     705.606
  O      -76.167     286.752     704.989
  C      -76.549     289.002     705.872
  N      -75.056     292.373     702.372
  C      -75.553     291.085     702.217
  N      -75.695     290.646     700.940
  N      -75.880     290.308     703.209
  C      -75.713     290.881     704.434
  C      -75.228     292.136     704.715
  C      -74.843     292.986     703.602
  O      -74.359     294.114     703.678
  N      -75.206     292.380     706.060
  C      -75.704     291.281     706.593
  N      -76.016     290.332     705.647
  O      -75.608     288.405     712.011
  O      -73.417     289.606     711.460
  H      -75.477     286.055     704.890
  H      -75.001     287.804     712.481
  H      -74.815     292.918     701.561
  H      -75.872     291.126     707.655
  H      -77.451     288.884     705.251
  H      -74.708     288.171     704.945
  H      -75.528     291.214     700.125
  H      -74.289     288.230     707.335
  H      -76.093     289.732     700.801
  H      -77.040     286.865     707.627
  H      -76.993     288.398     709.743
  H      -76.125     286.865     709.794
  P      -73.089     285.902     706.618
  C      -72.583     284.647     708.833
  O      -72.637     284.602     707.430
  O      -72.286     287.091     707.321
  O      -72.881     285.861     705.141
  H      -71.477     287.312     706.806
  H      -73.450     285.183     709.249
  H      -71.666     285.157     709.151
  H      -72.574     283.634     709.244
  H      -77.129     291.820     711.810
  H      -75.942     291.089     712.863
  H      -77.224     290.116     712.184

 3  4  5  6  7  8  9  10  11  12  23  26  30  31  33  0
 6-311+G(2d,p)
 ****
 35  36  37  38 0
 6-311+G(2d,p)
 ****
 1  2  13  14  15  16  17  18  19  20  21  22  24  25  27  28  29 0
 3-21G
 ****
 32  34  39  40  41  42  43  44  45  46  47  48  49 0
 3-21G
 ****


