%nproc=1
%NoSave
%Mem=1900MB
#P OB98/GEN NMR

erre ene a

0 1
  C       35.167     -33.042     866.777
  O       34.550     -33.193     865.517
  H       34.614     -32.324     867.384
  H       35.168     -34.010     867.287
  H       36.202     -32.711     866.656
  P       34.418     -31.871     864.615
  C       36.382     -32.552     863.065
  O       35.864     -31.590     863.975
  C       37.907     -32.446     862.998
  O       38.420     -32.424     864.359
  C       38.598     -33.591     862.244
  O       39.377     -33.068     861.162
  C       39.548     -34.200     863.267
  O       40.816     -34.560     862.715
  C       39.678     -33.112     864.326
  N       43.234     -33.329     867.974
  C       43.014     -32.424     866.991
  N       41.984     -32.365     866.120
  C       41.111     -33.362     866.345
  C       41.192     -34.345     867.321
  C       42.326     -34.319     868.148
  N       42.582     -35.272     869.106
  N       40.110     -35.203     867.236
  C       39.413     -34.775     866.203
  N       39.990     -33.674     865.621
  O       34.255     -30.703     865.701
  O       33.288     -31.880     863.639
  H       40.647     -35.275     862.072
  H       33.509     -30.124     865.450
  H       43.763     -31.644     866.897
  H       38.522     -35.241     865.809
  H       40.459     -32.380     864.068
  H       39.083     -35.102     863.681
  H       37.890     -34.336     861.865
  H       38.161     -31.481     862.546
  H       35.972     -32.374     862.065
  H       43.475     -35.243     869.578
  H       41.964     -36.073     869.171
  H       36.078     -33.553     863.395
  P       38.637     -32.934     859.739
  C       38.922     -30.370     859.369
  O       38.032     -31.453     859.651
  O       37.330     -33.850     859.929
  O       39.463     -33.372     858.577
  H       37.035     -34.189     859.061
  H       38.371     -29.453     859.343
  H       39.391     -30.531     858.421
  H       39.670     -30.315     860.132

 6  7  8  9  10  11  12  13  14  15  25  28  32  33  34  35 0
 6-311+G(2d,p)
 ****
 36  39  40 0
 6-311+G(2d,p)
 ****
 1  2  3  4  5  16  17  18  19  20  21  22  23  24 0
 3-21G
 ****
 26  27  29  30  31  37  38  41  42  43  44  45  46  47  48 0
 3-21G
 ****


