%nproc=1
%NoSave
%Mem=1900MB
#P OB98/GEN NMR

erre ene a

0 1
  C     -135.151     313.733    -349.855
  O     -135.601     315.021    -349.457
  P     -135.299     315.487    -347.951
  C     -137.695     314.999    -347.096
  O     -136.313     314.669    -347.008
  C     -138.439     314.549    -345.844
  O     -139.798     315.070    -345.891
  C     -138.537     313.024    -345.678
  O     -138.276     312.674    -344.311
  C     -140.001     312.726    -345.962
  O     -140.437     311.526    -345.327
  C     -140.648     314.001    -345.423
  N     -145.234     311.891    -345.772
  C     -144.128     311.488    -345.047
  N     -144.244     310.326    -344.370
  N     -143.003     312.159    -344.997
  C     -143.043     313.318    -345.701
  C     -144.076     313.832    -346.451
  C     -145.293     313.045    -346.546
  O     -146.272     313.306    -347.241
  N     -143.741     315.040    -347.007
  C     -142.503     315.255    -346.597
  N     -142.017     314.221    -345.846
  O     -135.871     316.980    -347.919
  O     -133.865     315.446    -347.547
  H     -141.332     311.343    -345.658
  H     -135.167     317.597    -347.637
  H     -146.068     311.330    -345.792
  H     -141.913     316.132    -346.850
  H     -140.633     314.008    -344.326
  H     -140.147     312.620    -347.043
  H     -145.088     309.780    -344.334
  H     -137.863     312.458    -346.339
  H     -143.452     310.026    -343.811
  H     -137.957     315.002    -344.964
  H     -138.133     314.509    -347.970
  H     -137.790     316.085    -347.219
  P     -137.268     311.446    -344.074
  C     -139.256     310.095    -343.056
  O     -138.187     310.136    -343.989
  O     -136.766     311.662    -342.568
  O     -136.140     311.392    -345.052
  H     -135.897     311.237    -342.432
  H     -139.434     311.075    -342.593
  H     -139.022     309.370    -342.276
  H     -140.169     309.783    -343.576
  H     -135.421     313.561    -350.876
  H     -135.606     312.989    -349.235
  H     -134.087     313.680    -349.754

 3  4  5  6  7  8  9  10  11  12  23  26  30  31  33  0
 6-311+G(2d,p)
 ****
 35  36  37  38 0
 6-311+G(2d,p)
 ****
 1  2  13  14  15  16  17  18  19  20  21  22  24  25  27  28  29 0
 3-21G
 ****
 32  34  39  40  41  42  43  44  45  46  47  48  49 0
 3-21G
 ****


