%nproc=1
%NoSave
%Mem=1900MB
#P OB98/GEN NMR

erre ene a

0 1
  C      -56.805     107.715    -349.668
  O      -56.648     108.621    -350.782
  P      -57.745     109.775    -351.017
  C      -56.720     111.758    -349.663
  O      -57.060     111.225    -350.936
  C      -55.970     113.093    -349.797
  O      -54.640     112.865    -350.358
  C      -56.666     114.127    -350.701
  O      -56.354     115.427    -350.165
  C      -55.957     113.930    -352.034
  O      -56.092     115.039    -352.908
  C      -54.521     113.687    -351.543
  N      -53.650     113.049    -352.530
  C      -52.537     113.765    -352.975
  O      -52.274     114.915    -352.646
  N      -51.725     113.109    -353.871
  C      -51.940     111.853    -354.385
  O      -51.183     111.336    -355.201
  C      -53.136     111.166    -353.901
  C      -53.924     111.777    -353.017
  O      -58.582     109.717    -349.646
  O      -58.658     109.569    -352.186
  H      -55.820     114.735    -353.796
  H      -59.540     109.738    -349.846
  H      -50.910     113.602    -354.191
  H      -53.336     110.163    -354.277
  H      -54.815     111.277    -352.633
  H      -54.080     114.632    -351.226
  H      -56.375     113.053    -352.538
  H      -57.749     113.990    -350.762
  H      -55.815     113.504    -348.790
  H      -56.079     111.044    -349.127
  H      -57.638     111.903    -349.081
  P      -57.548     116.507    -350.049
  C      -59.378     116.097    -348.211
  O      -58.052     116.483    -348.529
  O      -58.721     115.723    -350.833
  O      -57.236     117.842    -350.635
  H      -58.785     114.787    -350.570
  H      -59.695     115.237    -348.815
  H      -60.063     116.934    -348.382
  H      -59.427     115.819    -347.158
  H      -55.995     107.016    -349.659
  H      -57.730     107.187    -349.766
  H      -56.806     108.271    -348.754

 3  4  5  6  7  8  9  10  11  12  13  23  28  29  30  31  32 0
 6-311+G(2d,p)
 ****
 33  34 0
 6-311+G(2d,p)
 ****
 1  2  14  15  16  17  18  19  20  21  22  24  25  26 0
 3-21G
 ****
 27  35  36  37  38  39  40  41  42  43  44  45 0
 3-21G
 ****


