%nproc=1
%NoSave
%Mem=1900MB
#P OB98/GEN NMR

erre ene a

0 1
  C      175.368     -76.376     -26.033
  O      174.619     -77.307     -25.234
  P      175.408     -78.319     -24.266
  C      175.721     -80.637     -25.439
  O      174.932     -79.816     -24.591
  C      174.826     -81.376     -26.439
  O      174.611     -80.568     -27.619
  C      175.406     -82.684     -26.954
  O      175.288     -83.727     -26.000
  C      174.569     -82.912     -28.207
  O      173.306     -83.519     -27.880
  C      174.365     -81.472     -28.718
  N      175.209     -81.159     -29.868
  C      174.575     -81.092     -31.103
  O      173.380     -81.340     -31.260
  N      175.370     -80.764     -32.166
  C      176.722     -80.568     -32.128
  O      177.383     -80.295     -33.120
  C      177.349     -80.731     -30.808
  C      176.578     -81.019     -29.758
  O      174.702     -78.047     -22.851
  O      176.883     -78.106     -24.169
  H      172.867     -82.923     -27.242
  H      175.332     -78.237     -22.131
  H      174.924     -80.683     -33.066
  H      178.422     -80.607     -30.738
  H      177.028     -81.141     -28.776
  H      173.317     -81.318     -29.003
  H      175.064     -83.572     -28.926
  H      176.453     -82.541     -27.243
  H      173.851     -81.546     -25.963
  H      176.260     -81.371     -24.832
  H      176.450     -80.012     -25.963
  P      176.614     -84.586     -25.706
  C      175.628     -86.897     -26.433
  O      176.094     -86.068     -25.389
  O      177.054     -83.988     -24.287
  O      177.641     -84.464     -26.780
  H      176.289     -83.730     -23.745
  H      176.165     -86.709     -27.365
  H      174.560     -86.719     -26.586
  H      175.775     -87.941     -26.145
  H      174.694     -75.782     -26.614
  H      176.024     -76.913     -26.686
  H      175.944     -75.740     -25.394

 3  4  5  6  7  8  9  10  11  12  13  23  28  29  30  31  32 0
 6-311+G(2d,p)
 ****
 33  34 0
 6-311+G(2d,p)
 ****
 1  2  14  15  16  17  18  19  20  21  22  24  25  26 0
 3-21G
 ****
 27  35  36  37  38  39  40  41  42  43  44  45 0
 3-21G
 ****


