%nproc=1
%NoSave
%Mem=1900MB
#P OB98/GEN NMR

erre ene a

0 1
  C      396.271     780.630     318.318
  O      395.600     779.879     319.300
  P      394.935     780.630     320.551
  C      395.611     782.477     322.202
  O      396.061     781.543     321.233
  C      396.575     782.524     323.393
  O      397.914     782.836     322.935
  C      396.238     783.603     324.417
  O      395.150     783.203     325.231
  C      397.560     783.731     325.152
  O      397.707     782.686     326.139
  C      398.588     783.515     324.009
  N      402.468     786.812     324.468
  C      402.107     785.723     325.206
  N      401.032     784.934     325.038
  C      400.274     785.350     324.007
  C      400.506     786.453     323.184
  C      401.674     787.186     323.435
  N      402.089     788.247     322.653
  N      399.489     786.576     322.250
  C      398.662     785.567     322.514
  N      399.144     784.769     323.521
  O      394.167     779.752     321.495
  O      393.965     781.708     319.868
  H      397.169     782.951     326.916
  H      393.038     781.542     320.150
  H      402.767     785.477     326.030
  H      397.735     785.371     321.991
  H      399.422     782.879     324.324
  H      397.672     784.685     325.678
  H      396.019     784.546     323.913
  H      396.589     781.532     323.860
  H      394.615     782.176     322.554
  H      403.015     788.602     322.839
  H      401.686     788.349     321.720
  H      395.526     783.472     321.730
  P      394.199     784.307     325.900
  C      394.430     786.091     327.729
  O      395.097     785.107     326.963
  O      392.877     783.812     326.398
  O      394.001     785.390     324.724
  H      393.107     785.786     324.800
  H      394.285     786.989     327.116
  H      395.032     786.336     328.607
  H      393.453     785.727     328.075
  H      396.650     779.973     317.563
  H      397.083     781.161     318.768
  H      395.591     781.327     317.875

 3  4  5  6  7  8  9  10  11  12  22  25  29  30  31  32 0
 6-311+G(2d,p)
 ****
 33  36  37 0
 6-311+G(2d,p)
 ****
 1  2  13  14  15  16  17  18  19  20  21  23  24  26 0
 3-21G
 ****
 27  28  34  35  38  39  40  41  42  43  44  45  46  47  48 0
 3-21G
 ****


