%nproc=1
%NoSave
%Mem=1900MB
#P OB98/GEN NMR

erre ene a

0 1
  C     -987.355    -794.169     -71.351
  O     -986.445    -793.276     -71.953
  P     -986.747    -792.657     -73.396
  C     -987.584    -790.351     -72.577
  O     -987.946    -791.589     -73.169
  C     -987.725    -789.207     -73.612
  O     -989.114    -788.936     -73.854
  C     -987.116    -787.909     -73.146
  O     -985.698    -787.932     -73.269
  C     -987.794    -786.903     -74.105
  O     -987.160    -786.878     -75.367
  C     -989.224    -787.537     -74.218
  N     -990.211    -786.852     -73.389
  C     -990.372    -785.482     -73.637
  O     -989.685    -784.919     -74.500
  N     -991.268    -784.763     -72.881
  C     -991.938    -785.375     -71.947
  N     -992.803    -784.616     -71.223
  C     -991.771    -786.806     -71.618
  C     -990.893    -787.479     -72.369
  O     -986.992    -793.652     -74.480
  O     -985.491    -791.695     -73.670
  H     -987.701    -786.282     -75.930
  H     -984.688    -792.223     -73.897
  H     -992.335    -787.260     -70.813
  H     -990.717    -788.526     -72.201
  H     -989.561    -787.529     -75.254
  H     -987.816    -785.912     -73.697
  H     -987.403    -787.704     -72.116
  H     -987.253    -789.562     -74.536
  H     -992.862    -783.622     -71.444
  H     -986.543    -790.415     -72.241
  H     -993.338    -784.977     -70.450
  H     -988.208    -790.161     -71.699
  P     -984.781    -787.195     -72.201
  C     -984.496    -789.372     -70.847
  O     -984.894    -788.010     -70.825
  O     -984.986    -785.732     -72.080
  O     -983.281    -787.515     -72.666
  H     -982.747    -786.704     -72.635
  H     -984.312    -789.711     -69.842
  H     -983.588    -789.502     -71.438
  H     -985.307    -789.979     -71.290
  H     -986.979    -794.471     -70.396
  H     -987.476    -795.030     -71.975
  H     -988.300    -793.684     -71.225

 3  4  5  6  7  8  9  10  11  12  13  23  27  28  29  30  32 0
 6-311+G(2d,p)
 ****
 34  35 0
 6-311+G(2d,p)
 ****
 1  2  14  15  16  17  18  19  20  21  22  24  25  26 0
 3-21G
 ****
 31  33  36  37  38  39  40  41  42  43  44  45  46 0
 3-21G
 ****


