%nproc=1
%NoSave
%Mem=1900MB
#P OB98/GEN NMR

erre ene a

0 1
  C     -168.576    -104.130    -230.058
  O     -169.896    -104.618    -230.195
  H     -168.462    -103.704    -229.058
  H     -168.391    -103.347    -230.798
  H     -167.853    -104.942    -230.183
  P     -170.224    -105.447    -231.531
  C     -170.208    -107.588    -230.011
  O     -169.803    -106.962    -231.215
  C     -170.538    -109.062    -230.256
  O     -171.645    -109.142    -231.189
  C     -169.374    -109.864    -230.840
  O     -169.420    -111.187    -230.301
  C     -169.696    -109.916    -232.325
  O     -169.063    -111.015    -232.974
  C     -171.232    -109.970    -232.296
  N     -171.829    -109.526    -233.553
  C     -171.976    -110.491    -234.554
  O     -171.599    -111.648    -234.360
  N     -172.506    -110.119    -235.762
  C     -172.803    -108.876    -235.979
  N     -173.301    -108.567    -237.206
  C     -172.624    -107.816    -234.969
  C     -172.147    -108.209    -233.788
  O     -169.078    -104.934    -232.524
  O     -171.612    -105.265    -232.045
  H     -169.237    -110.949    -233.939
  H     -168.200    -104.890    -232.111
  H     -172.876    -106.792    -235.200
  H     -171.990    -107.498    -232.985
  H     -171.577    -110.992    -232.094
  H     -169.358    -108.996    -232.815
  H     -168.402    -109.412    -230.633
  H     -170.885    -109.502    -229.314
  H     -173.387    -109.320    -237.877
  H     -171.087    -107.085    -229.597
  H     -173.514    -107.627    -237.504
  H     -169.391    -107.497    -229.289
  P     -168.185    -111.730    -229.440
  C     -168.900    -113.274    -227.493
  O     -168.650    -111.941    -227.921
  O     -166.899    -110.996    -229.617
  O     -168.034    -113.244    -229.962
  H     -167.079    -113.435    -230.047
  H     -169.201    -113.268    -226.466
  H     -168.009    -113.856    -227.601
  H     -169.679    -113.700    -228.090

 6  7  8  9  10  11  12  13  14  15  16  26  30  31  32  33  35 0
 6-311+G(2d,p)
 ****
 37  38 0
 6-311+G(2d,p)
 ****
 1  2  3  4  5  17  18  19  20  21  22  23  24  25 0
 3-21G
 ****
 27  28  29  34  36  39  40  41  42  43  44  45  46 0
 3-21G
 ****


