%nproc=1
%NoSave
%Mem=1900MB
#P OB98/GEN NMR

erre ene a

0 1
  C      375.502     152.774    -341.933
  O      374.380     153.358    -341.263
  P      372.962     153.645    -341.943
  C      370.556     153.679    -340.892
  O      371.927     154.039    -340.783
  C      369.774     153.844    -339.570
  O      370.213     152.828    -338.625
  C      370.086     155.201    -338.931
  O      369.386     156.358    -339.354
  C      370.018     154.942    -337.426
  O      368.740     155.239    -336.878
  C      370.318     153.443    -337.317
  N      373.311     153.653    -333.167
  C      372.032     154.139    -333.347
  N      371.489     154.809    -332.303
  N      371.345     153.993    -334.451
  C      372.035     153.383    -335.439
  C      373.321     152.874    -335.391
  C      374.043     152.988    -334.142
  O      375.181     152.568    -333.931
  N      373.691     152.337    -336.599
  C      372.653     152.541    -337.382
  N      371.614     153.166    -336.723
  O      372.512     152.636    -342.940
  O      373.201     155.040    -342.719
  H      368.066     154.741    -337.392
  H      372.637     155.010    -343.521
  H      373.780     153.769    -332.287
  H      372.589     152.254    -338.429
  H      369.570     152.939    -336.682
  H      370.741     155.577    -336.904
  H      372.002     155.058    -331.475
  H      371.141     155.421    -339.139
  H      370.642     155.348    -332.496
  H      368.707     153.669    -339.719
  H      370.528     152.633    -341.224
  H      370.073     154.267    -341.677
  P      369.919     157.461    -340.387
  C      368.681     159.250    -341.746
  O      368.818     158.623    -340.481
  O      369.800     156.743    -341.815
  O      371.321     157.939    -340.142
  H      370.335     157.223    -342.481
  H      368.141     160.197    -341.616
  H      368.092     158.603    -342.409
  H      369.659     159.451    -342.197
  H      376.322     152.693    -341.251
  H      375.785     153.392    -342.760
  H      375.237     151.800    -342.289

 3  4  5  6  7  8  9  10  11  12  23  26  30  31 0
 6-311+G(2d,p)
 ****
 33  35  36  37  38 0
 6-311+G(2d,p)
 ****
 1  2  13  14  15  16  17  18  19  20  21  22  24  25 0
 3-21G
 ****
 27  28  29  32  34  39  40  41  42  43  44  45  46  47  48  49 0
 3-21G
 ****


