%nproc=1
%NoSave
%Mem=1900MB
#P OB98/GEN NMR

erre ene a

0 1
  C     -238.129     443.492     138.396
  O     -239.115     444.327     138.977
  H     -237.203     443.598     138.970
  H     -237.937     443.778     137.358
  H     -238.451     442.449     138.442
  P     -240.480     444.566     138.157
  C     -241.886     443.553     140.069
  O     -241.624     444.713     139.276
  C     -242.654     443.916     141.341
  O     -241.861     444.766     142.194
  C     -243.940     444.694     141.092
  O     -244.949     443.980     140.425
  C     -244.220     445.280     142.470
  O     -244.882     444.350     143.323
  C     -242.783     445.548     142.988
  N     -242.440     446.964     142.969
  C     -242.497     447.625     144.193
  O     -242.833     447.073     145.244
  N     -242.184     448.953     144.171
  C     -241.875     449.684     143.053
  O     -241.622     450.886     143.106
  C     -241.870     448.946     141.791
  C     -242.145     447.638     141.796
  O     -240.783     443.546     137.100
  O     -240.332     446.058     137.595
  H     -245.701     444.075     142.867
  H     -240.991     446.231     136.877
  H     -242.199     449.444     145.048
  H     -241.639     449.496     140.881
  H     -242.149     447.069     140.868
  H     -242.682     445.189     144.021
  H     -244.841     446.176     142.419
  H     -243.694     445.547     140.441
  H     -242.862     442.988     141.892
  H     -240.924     443.113     140.341
  H     -242.454     442.825     139.478
  P     -245.615     444.448     139.051
  C     -244.730     442.396     137.690
  O     -245.850     443.154     138.131
  O     -245.036     445.669     138.414
  O     -247.121     444.806     139.521
  H     -247.419     445.555     138.971
  H     -245.068     441.576     137.092
  H     -244.196     442.023     138.538
  H     -244.084     443.020     137.108

 6  7  8  9  10  11  12  13  14  15  16  26  31  32  33  34  35 0
 6-311+G(2d,p)
 ****
 36  37 0
 6-311+G(2d,p)
 ****
 1  2  3  4  5  17  18  19  20  21  22  23  24  25 0
 3-21G
 ****
 27  28  29  30  38  39  40  41  42  43  44  45 0
 3-21G
 ****


