%nproc=1
%NoSave
%Mem=1900MB
#P OB98/GEN NMR

erre ene a

0 1
  C      234.995     177.345    -156.566
  O      236.314     177.808    -156.343
  H      234.935     176.296    -156.260
  H      234.750     177.417    -157.631
  H      234.281     177.929    -155.978
  P      236.579     179.371    -156.564
  C      237.388     178.936    -159.024
  O      236.524     179.645    -158.149
  C      236.994     179.195    -160.476
  O      235.735     178.572    -160.797
  C      236.762     180.664    -160.794
  O      237.952     181.414    -160.823
  C      236.068     180.548    -162.147
  O      237.020     180.313    -163.194
  C      235.178     179.300    -161.927
  N      233.778     179.646    -161.705
  C      233.054     180.013    -162.850
  O      233.602     180.021    -163.952
  N      231.743     180.392    -162.707
  C      231.193     180.378    -161.531
  N      229.892     180.770    -161.453
  C      231.911     179.977    -160.305
  C      233.186     179.629    -160.465
  O      238.138     179.511    -156.235
  O      235.695     180.287    -155.778
  H      236.510     180.286    -164.025
  H      238.700     178.901    -156.742
  H      231.407     179.971    -159.345
  H      233.783     179.319    -159.616
  H      235.230     178.633    -162.793
  H      235.523     181.460    -162.409
  H      236.041     181.097    -160.084
  H      237.765     178.762    -161.125
  H      229.443     181.065    -162.311
  H      237.366     177.860    -158.807
  H      229.373     180.835    -160.588
  H      238.408     179.284    -158.843
  P      237.934     182.990    -160.530
  C      238.103     183.705    -162.998
  O      237.292     183.681    -161.835
  O      239.234     183.577    -160.103
  O      236.759     183.151    -159.451
  H      235.883     182.848    -159.750
  H      237.572     184.186    -163.793
  H      238.345     182.703    -163.285
  H      239.004     184.244    -162.793

 6  7  8  9  10  11  12  13  14  15  16  26  30  31  32  33  35 0
 6-311+G(2d,p)
 ****
 37  38 0
 6-311+G(2d,p)
 ****
 1  2  3  4  5  17  18  19  20  21  22  23  24  25 0
 3-21G
 ****
 27  28  29  34  36  39  40  41  42  43  44  45  46 0
 3-21G
 ****


