%nproc=1
%NoSave
%Mem=1900MB
#P OB98/GEN NMR

erre ene a

0 1
  C      -50.135     -74.732     132.043
  O      -48.914     -74.972     131.332
  P      -47.664     -75.544     132.152
  C      -47.429     -77.797     133.434
  O      -47.808     -77.139     132.233
  C      -47.256     -79.298     133.185
  O      -48.483     -79.908     132.725
  C      -46.209     -79.628     132.131
  O      -44.894     -79.624     132.676
  C      -46.606     -81.047     131.755
  O      -46.105     -81.974     132.739
  C      -48.138     -80.980     131.809
  N      -49.902     -83.127     127.582
  C      -49.368     -83.704     128.718
  N      -49.299     -85.054     128.731
  N      -48.938     -83.021     129.747
  C      -49.085     -81.685     129.600
  C      -49.599     -80.992     128.524
  C      -50.057     -81.760     127.387
  O      -50.528     -81.303     126.348
  N      -49.577     -79.640     128.744
  C      -49.071     -79.511     129.954
  N      -48.741     -80.721     130.512
  O      -47.983     -75.083     133.655
  O      -46.339     -75.034     131.689
  H      -45.140     -81.835     132.787
  H      -47.152     -74.976     134.151
  H      -50.213     -83.701     126.816
  H      -48.929     -78.568     130.468
  H      -48.585     -81.903     132.195
  H      -46.190     -81.354     130.791
  H      -49.657     -85.643     127.998
  H      -46.299     -78.966     131.261
  H      -48.939     -85.495     129.569
  H      -46.971     -79.769     134.135
  H      -48.180     -77.634     134.211
  H      -46.507     -77.344     133.812
  P      -43.863     -78.520     132.137
  C      -43.880     -75.926     131.998
  O      -44.562     -77.100     132.387
  O      -43.935     -78.711     130.549
  O      -42.471     -78.664     132.649
  H      -43.070     -78.497     130.147
  H      -44.563     -75.077     132.091
  H      -43.545     -75.996     130.958
  H      -43.019     -75.757     132.652
  H      -50.873     -74.354     131.367
  H      -49.961     -74.016     132.818
  H      -50.482     -75.647     132.474

 3  4  5  6  7  8  9  10  11  12  23  26  30  31 0
 6-311+G(2d,p)
 ****
 33  35  36  37  38 0
 6-311+G(2d,p)
 ****
 1  2  13  14  15  16  17  18  19  20  21  22  24  25 0
 3-21G
 ****
 27  28  29  32  34  39  40  41  42  43  44  45  46  47  48  49 0
 3-21G
 ****


