%nproc=1
%NoSave
%Mem=1900MB
#P OB98/GEN NMR

erre ene a

0 1
  C     -136.862    -207.011     204.190
  O     -136.257    -205.787     204.574
  P     -134.930    -205.266     203.839
  C     -133.376    -206.667     205.333
  O     -133.745    -205.356     204.918
  C     -132.023    -206.647     206.047
  O     -131.753    -207.969     206.571
  C     -130.864    -206.267     205.135
  O     -129.918    -205.495     205.883
  C     -130.216    -207.595     204.778
  O     -128.828    -207.427     204.448
  C     -130.486    -208.414     206.046
  N     -128.719    -213.061     207.324
  C     -128.453    -211.833     207.819
  N     -128.940    -210.638     207.417
  C     -129.829    -210.804     206.425
  C     -130.204    -211.996     205.817
  C     -129.603    -213.168     206.306
  N     -129.886    -214.422     205.808
  N     -131.120    -211.763     204.809
  C     -131.309    -210.461     204.820
  N     -130.559    -209.838     205.786
  O     -135.057    -203.941     203.170
  O     -134.563    -206.424     202.800
  H     -128.781    -206.760     203.728
  H     -134.226    -206.039     201.967
  H     -127.755    -211.806     208.652
  H     -131.961    -209.923     204.153
  H     -129.720    -208.238     206.812
  H     -130.721    -208.025     203.905
  H     -131.179    -205.708     204.249
  H     -132.090    -205.962     206.901
  H     -133.305    -207.303     204.446
  H     -129.502    -215.214     206.300
  H     -130.668    -214.517     205.172
  H     -134.153    -207.073     205.992
  P     -129.550    -204.052     205.275
  C     -127.003    -204.600     205.336
  O     -128.054    -203.768     205.777
  O     -130.585    -203.023     205.600
  O     -129.416    -204.396     203.715
  H     -129.190    -205.343     203.575
  H     -126.075    -204.272     205.815
  H     -126.884    -204.518     204.255
  H     -127.197    -205.643     205.614
  H     -137.729    -207.184     204.792
  H     -136.166    -207.812     204.328
  H     -137.147    -206.960     203.160

 3  4  5  6  7  8  9  10  11  12  22  25  29  30  31  32 0
 6-311+G(2d,p)
 ****
 33  36  37 0
 6-311+G(2d,p)
 ****
 1  2  13  14  15  16  17  18  19  20  21  23  24  26 0
 3-21G
 ****
 27  28  34  35  38  39  40  41  42  43  44  45  46  47  48 0
 3-21G
 ****


