%nproc=1
%NoSave
%Mem=1900MB
#P OB98/GEN NMR

erre ene a

0 1
  C       56.146    -543.178     593.001
  O       57.354    -543.161     593.741
  P       58.658    -542.467     593.133
  C       60.818    -543.313     591.944
  O       59.579    -543.638     592.536
  C       61.597    -544.580     591.560
  O       61.969    -545.257     592.780
  C       60.807    -545.592     590.737
  O       61.727    -546.486     590.108
  C       60.041    -546.333     591.815
  O       59.583    -547.608     591.370
  C       61.055    -546.362     592.987
  N       60.383    -546.233     594.288
  C       60.605    -547.247     595.219
  O       61.387    -548.175     595.017
  N       59.843    -547.203     596.352
  C       58.861    -546.282     596.602
  O       57.985    -546.430     597.455
  C       58.835    -545.116     595.707
  C       59.570    -545.151     594.589
  O       59.448    -541.988     594.437
  O       58.393    -541.338     592.197
  H       59.115    -548.026     592.129
  H       59.256    -541.048     594.621
  H       59.898    -548.013     596.954
  H       58.179    -544.291     595.959
  H       59.534    -544.332     593.888
  H       61.631    -547.301     592.993
  H       59.162    -545.745     592.097
  H       60.139    -545.148     589.995
  H       62.518    -544.287     591.038
  H       61.397    -542.696     592.635
  H       60.656    -542.706     591.049
  P       61.703    -546.583     588.508
  C       61.461    -548.510     586.824
  O       61.259    -548.083     588.157
  O       62.922    -546.090     587.805
  O       60.409    -545.731     588.110
  H       60.452    -545.471     587.176
  H       61.625    -549.591     586.820
  H       62.331    -548.016     586.371
  H       60.574    -548.280     586.233
  H       55.389    -543.682     593.565
  H       56.302    -543.691     592.075
  H       55.834    -542.174     592.804

 3  4  5  6  7  8  9  10  11  12  13  23  28  29  30  31  32 0
 6-311+G(2d,p)
 ****
 33  34 0
 6-311+G(2d,p)
 ****
 1  2  14  15  16  17  18  19  20  21  22  24  25  26  27 0
 3-21G
 ****
 35  36  37  38  39  40  41  42  43  44  45 0
 3-21G
 ****


