%nproc=1
%NoSave
%Mem=1900MB
#P OB98/GEN NMR

erre ene a

0 1
  C      -64.275     174.623     -86.764
  O      -65.091     175.272     -85.806
  P      -65.609     174.470     -84.521
  C      -63.961     175.267     -82.671
  O      -64.341     174.246     -83.567
  C      -63.049     174.723     -81.564
  O      -63.834     173.823     -80.746
  C      -61.859     173.907     -82.058
  O      -60.896     173.827     -81.005
  C      -62.484     172.549     -82.280
  O      -61.514     171.506     -82.307
  C      -63.520     172.463     -81.129
  N      -64.740     171.754     -81.550
  C      -64.595     170.425     -81.937
  O      -63.525     169.821     -81.866
  N      -65.701     169.838     -82.488
  C      -66.890     170.463     -82.724
  O      -67.749     170.032     -83.483
  C      -67.055     171.775     -82.081
  C      -65.979     172.365     -81.553
  O      -65.906     173.012     -85.109
  O      -66.805     175.055     -83.855
  H      -60.979     171.593     -81.485
  H      -66.854     172.922     -85.322
  H      -65.553     168.925     -82.900
  H      -68.030     172.241     -82.115
  H      -66.060     173.358     -81.119
  H      -63.107     171.938     -80.260
  H      -62.999     172.545     -83.248
  H      -61.394     174.297     -82.968
  H      -62.714     175.551     -80.930
  H      -64.858     175.723     -82.243
  H      -63.433     176.066     -83.207
  P      -59.391     173.432     -81.394
  C      -59.018     175.902     -81.987
  O      -58.878     174.560     -82.410
  O      -59.178     172.023     -81.836
  O      -58.573     173.766     -80.055
  H      -57.719     173.297     -80.066
  H      -58.227     176.500     -82.447
  H      -58.942     175.989     -80.900
  H      -59.988     176.283     -82.314
  H      -64.028     175.310     -87.546
  H      -64.803     173.788     -87.176
  H      -63.377     174.280     -86.294

 3  4  5  6  7  8  9  10  11  12  13  23  28  29  30  31  32 0
 6-311+G(2d,p)
 ****
 33  34 0
 6-311+G(2d,p)
 ****
 1  2  14  15  16  17  18  19  20  21  22  24  25  26  27 0
 3-21G
 ****
 35  36  37  38  39  40  41  42  43  44  45 0
 3-21G
 ****


