%nproc=1
%NoSave
%Mem=1900MB
#P OB98/GEN NMR

erre ene a

0 1
  C      297.656    -324.132    1179.323
  O      299.015    -323.727    1179.534
  P      300.016    -324.847    1180.092
  C      301.316    -324.994    1177.832
  O      300.563    -325.677    1178.831
  C      301.448    -325.844    1176.569
  O      300.188    -325.940    1175.880
  C      302.413    -325.285    1175.536
  O      303.764    -325.586    1175.871
  C      301.986    -326.040    1174.293
  O      302.599    -327.344    1174.281
  C      300.472    -326.158    1174.477
  N      296.845    -325.510    1170.982
  C      297.352    -326.670    1171.535
  N      296.790    -327.830    1171.110
  N      298.305    -326.703    1172.419
  C      298.757    -325.471    1172.762
  C      298.348    -324.239    1172.285
  C      297.301    -324.229    1171.291
  O      296.841    -323.222    1170.750
  N      299.024    -323.213    1172.892
  C      299.837    -323.804    1173.752
  N      299.719    -325.179    1173.693
  O      299.034    -325.890    1180.819
  O      301.063    -324.329    1181.023
  H      303.551    -327.211    1174.434
  H      299.511    -326.362    1181.530
  H      296.111    -325.548    1170.293
  H      300.504    -323.303    1174.422
  H      300.098    -327.157    1174.215
  H      302.287    -325.540    1173.365
  H      296.004    -327.875    1170.491
  H      302.262    -324.199    1175.396
  H      297.127    -328.692    1171.536
  H      301.759    -326.853    1176.863
  H      302.322    -324.764    1178.225
  H      300.832    -324.028    1177.615
  P      304.549    -324.535    1176.815
  C      304.804    -326.113    1178.861
  O      304.189    -324.956    1178.322
  O      303.734    -323.166    1176.583
  O      305.993    -324.384    1176.503
  H      304.317    -322.407    1176.708
  H      305.865    -326.158    1178.605
  H      304.290    -327.014    1178.485
  H      304.704    -326.084    1179.947
  H      297.090    -323.303    1178.952
  H      297.235    -324.465    1180.249
  H      297.628    -324.930    1178.611

 3  4  5  6  7  8  9  10  11  12  23  26  30  31  33  0
 6-311+G(2d,p)
 ****
 35  36  37  38 0
 6-311+G(2d,p)
 ****
 1  2  13  14  15  16  17  18  19  20  21  22  24  25  27  28  29 0
 3-21G
 ****
 32  34  39  40  41  42  43  44  45  46  47  48  49 0
 3-21G
 ****


