%nproc=1
%NoSave
%Mem=1900MB
#P OB98/GEN NMR

erre ene a

0 1
  C      -15.273     -17.916     -40.605
  O      -16.447     -17.133     -40.741
  P      -16.916     -16.134     -39.574
  C      -17.477     -17.944     -37.817
  O      -17.983     -16.969     -38.719
  C      -18.508     -18.227     -36.728
  O      -18.765     -17.022     -35.981
  C      -19.863     -18.691     -37.246
  O      -19.818     -20.050     -37.650
  C      -20.749     -18.392     -36.043
  O      -20.614     -19.424     -35.054
  C      -20.134     -17.079     -35.514
  N      -20.880     -15.896     -35.929
  C      -21.814     -15.397     -35.016
  O      -21.979     -15.931     -33.921
  N      -22.523     -14.270     -35.352
  C      -22.336     -13.706     -36.504
  N      -23.016     -12.554     -36.755
  C      -21.403     -14.232     -37.517
  C      -20.713     -15.314     -37.165
  O      -17.397     -14.804     -40.044
  O      -15.665     -16.057     -38.586
  H      -19.786     -19.243     -34.569
  H      -15.016     -15.350     -38.825
  H      -21.291     -13.734     -38.470
  H      -19.992     -15.750     -37.844
  H      -20.082     -17.099     -34.420
  H      -21.811     -18.305     -36.293
  H      -20.178     -18.075     -38.097
  H      -18.085     -18.973     -36.042
  H      -23.506     -12.137     -35.971
  H      -16.565     -17.552     -37.355
  H      -22.720     -11.914     -37.481
  H      -17.228     -18.854     -38.372
  P      -19.588     -20.354     -39.206
  C      -21.782     -19.325     -40.129
  O      -21.054     -20.506     -39.845
  O      -18.996     -21.839     -39.207
  O      -18.687     -19.385     -39.897
  H      -18.028     -21.819     -39.328
  H      -22.632     -19.587     -40.763
  H      -21.158     -18.601     -40.658
  H      -22.159     -18.888     -39.200
  H      -15.137     -18.510     -41.484
  H      -15.368     -18.557     -39.753
  H      -14.428     -17.272     -40.475

 3  4  5  6  7  8  9  10  11  12  13  23  27  28  29  30  32 0
 6-311+G(2d,p)
 ****
 34  35 0
 6-311+G(2d,p)
 ****
 1  2  14  15  16  17  18  19  20  21  22  24  25  26 0
 3-21G
 ****
 31  33  36  37  38  39  40  41  42  43  44  45  46 0
 3-21G
 ****


