%nproc=1
%NoSave
%Mem=1900MB
#P OB98/GEN NMR

erre ene a

0 1
  C       16.982     298.792    -919.711
  O       17.056     300.116    -919.195
  P       16.174     301.263    -919.877
  C       14.677     301.568    -917.797
  O       14.721     301.257    -919.194
  C       13.223     301.719    -917.324
  O       12.507     300.471    -917.403
  C       13.109     302.164    -915.879
  O       13.429     303.539    -915.745
  C       11.671     301.796    -915.557
  O       10.758     302.809    -916.029
  C       11.480     300.498    -916.382
  N       11.507     299.293    -915.568
  C       10.406     299.104    -914.716
  O        9.521     299.958    -914.656
  N       10.362     297.971    -913.937
  C       11.331     297.099    -914.003
  N       11.236     295.995    -913.222
  C       12.503     297.263    -914.886
  C       12.534     298.374    -915.633
  O       16.169     301.276    -921.372
  O       16.827     302.616    -919.290
  H       10.930     303.602    -915.491
  H       16.722     303.326    -919.956
  H       13.280     296.503    -914.913
  H       13.349     298.573    -916.303
  H       10.515     300.514    -916.920
  H       11.499     301.678    -914.493
  H       13.785     301.562    -915.248
  H       12.727     302.458    -917.987
  H       10.413     295.913    -912.618
  H       15.223     302.500    -917.611
  H       11.899     295.236    -913.251
  H       15.192     300.772    -917.243
  P       14.947     303.923    -915.393
  C       15.188     305.043    -917.722
  O       15.725     304.150    -916.773
  O       15.552     302.550    -914.830
  O       15.097     305.022    -914.380
  H       16.201     302.727    -914.139
  H       15.966     305.315    -918.433
  H       14.805     305.952    -917.242
  H       14.373     304.559    -918.270
  H       17.628     298.153    -919.147
  H       17.287     298.791    -920.737
  H       15.975     298.436    -919.638

 3  4  5  6  7  8  9  10  11  12  13  23  27  28  29  30  32 0
 6-311+G(2d,p)
 ****
 34  35 0
 6-311+G(2d,p)
 ****
 1  2  14  15  16  17  18  19  20  21  22  24  25  26 0
 3-21G
 ****
 31  33  36  37  38  39  40  41  42  43  44  45  46 0
 3-21G
 ****


