%nproc=1
%NoSave
%Mem=1900MB
#P OB98/GEN NMR

erre ene a

0 1
  C      330.773    -102.423     147.386
  O      329.599    -101.672     147.155
  P      329.704    -100.108     146.846
  C      330.708     -98.039     147.998
  O      330.258     -99.378     148.164
  C      330.479     -97.240     149.284
  O      331.065     -97.933     150.412
  C      331.127     -95.857     149.272
  O      330.378     -94.953     148.492
  C      331.159     -95.540     150.758
  O      329.884     -95.052     151.211
  C      331.440     -96.927     151.381
  N      334.847     -96.442     155.157
  C      333.553     -96.037     155.044
  N      332.732     -96.170     153.984
  C      333.357     -96.771     152.958
  C      334.679     -97.210     152.925
  C      335.429     -97.048     154.095
  N      336.714     -97.513     154.255
  N      334.966     -97.756     151.681
  C      333.845     -97.634     150.988
  N      332.834     -97.110     151.749
  O      328.481     -99.483     146.245
  O      330.945    -100.004     145.831
  H      329.994     -94.777     152.146
  H      330.641     -99.615     144.980
  H      333.134     -95.540     155.913
  H      333.720     -97.931     149.957
  H      330.833     -97.106     152.272
  H      331.905     -94.785     151.019
  H      332.158     -95.931     148.895
  H      329.397     -97.158     149.446
  H      330.149     -97.579     147.176
  H      337.103     -97.471     155.181
  H      337.055     -98.223     153.600
  H      331.779     -98.051     147.734
  P      330.924     -93.469     148.229
  C      331.354     -91.373     149.638
  O      331.016     -92.749     149.654
  O      330.232     -92.701     147.154
  O      332.472     -93.711     147.855
  H      332.760     -93.032     147.218
  H      332.433     -91.270     149.481
  H      331.087     -90.924     150.604
  H      330.815     -90.841     148.850
  H      330.512    -103.443     147.575
  H      331.290    -102.024     148.234
  H      331.406    -102.370     146.525

 3  4  5  6  7  8  9  10  11  12  22  25  29  30  31  32 0
 6-311+G(2d,p)
 ****
 33  36  37 0
 6-311+G(2d,p)
 ****
 1  2  13  14  15  16  17  18  19  20  21  23  24  26 0
 3-21G
 ****
 27  28  34  35  38  39  40  41  42  43  44  45  46  47  48 0
 3-21G
 ****


