%nproc=1
%NoSave
%Mem=1900MB
#P OB98/GEN NMR

erre ene a

0 1
  C       90.295     457.748      86.275
  O       90.538     456.966      87.430
  P       91.775     457.353      88.371
  C       92.501     454.887      87.825
  O       92.527     455.981      88.727
  C       92.640     453.566      88.592
  O       93.971     453.504      89.180
  C       91.626     453.378      89.726
  O       91.306     451.980      89.782
  C       92.417     453.790      90.958
  O       91.879     453.251      92.158
  C       93.809     453.264      90.593
  N       94.887     453.897      91.350
  C       95.932     453.093      91.795
  O       95.990     451.879      91.607
  N       96.917     453.736      92.502
  C       96.923     455.053      92.862
  O       97.821     455.572      93.512
  C       95.767     455.842      92.402
  C       94.827     455.243      91.676
  O       91.023     457.747      89.726
  O       92.651     458.420      87.805
  H       90.234     457.202      89.896
  H       91.860     452.281      92.070
  H       97.702     453.180      92.803
  H       95.730     456.888      92.680
  H       93.964     455.800      91.332
  H       93.849     452.175      90.739
  H       92.411     454.882      91.040
  H       90.714     453.963      89.576
  H       92.567     452.745      87.867
  H       93.332     454.980      87.120
  H       91.566     454.911      87.255
  P       89.755     451.555      89.657
  C       89.450     450.550      92.057
  O       89.517     450.329      90.661
  O       89.773     450.838      88.224
  O       88.784     452.688      89.729
  H       90.495     450.198      88.129
  H       88.957     449.690      92.522
  H       88.879     451.447      92.297
  H       90.461     450.635      92.463
  H       89.441     457.364      85.757
  H       91.149     457.709      85.632
  H       90.111     458.762      86.563

 3  4  5  6  7  8  9  10  11  12  13  24  28  29  30  31  32 0
 6-311+G(2d,p)
 ****
 33  34 0
 6-311+G(2d,p)
 ****
 1  2  14  15  16  17  18  19  20  21  22  23  25  26  27 0
 3-21G
 ****
 35  36  37  38  39  40  41  42  43  44  45 0
 3-21G
 ****


