%nproc=1
%NoSave
%Mem=1900MB
#P OB98/GEN NMR

erre ene a

0 1
  C     -265.760     279.107     174.165
  O     -265.043     279.824     175.157
  P     -264.613     279.036     176.488
  C     -266.003     280.460     178.209
  O     -265.824     279.232     177.520
  C     -267.270     280.401     179.068
  O     -268.439     280.444     178.224
  C     -267.415     279.129     179.897
  O     -266.581     279.147     181.045
  C     -268.910     279.141     180.195
  O     -269.195     280.034     181.286
  C     -269.491     279.703     178.882
  N     -270.036     278.670     178.003
  C     -271.424     278.613     177.910
  O     -272.172     279.379     178.518
  N     -271.928     277.627     177.100
  C     -271.200     276.679     176.446
  O     -271.705     275.790     175.767
  C     -269.742     276.766     176.610
  C     -269.235     277.744     177.368
  O     -263.453     279.991     177.033
  O     -264.206     277.627     176.227
  H     -263.576     280.912     176.746
  H     -270.161     279.999     181.425
  H     -272.931     277.582     176.998
  H     -269.131     276.025     176.111
  H     -268.164     277.819     177.507
  H     -270.285     280.426     179.096
  H     -269.293     278.152     180.472
  H     -267.170     278.255     179.281
  H     -267.285     281.287     179.718
  H     -266.094     281.269     177.480
  H     -265.125     280.647     178.835
  P     -266.411     277.756     181.836
  C     -267.439     278.661     184.064
  O     -267.529     277.757     182.985
  O     -265.038     278.009     182.617
  O     -266.408     276.560     180.941
  H     -264.978     278.902     182.997
  H     -268.425     278.758     184.522
  H     -267.103     279.647     183.733
  H     -266.741     278.269     184.809
  H     -265.977     279.756     173.342
  H     -266.675     278.741     174.581
  H     -265.169     278.283     173.823

 3  4  5  6  7  8  9  10  11  12  13  24  28  29  30  31  32 0
 6-311+G(2d,p)
 ****
 33  34 0
 6-311+G(2d,p)
 ****
 1  2  14  15  16  17  18  19  20  21  22  23  25  26  27 0
 3-21G
 ****
 35  36  37  38  39  40  41  42  43  44  45 0
 3-21G
 ****


