%nproc=1
%NoSave
%Mem=1900MB
#P OB98/GEN NMR

erre ene a

0 1
  C     -216.863    -144.804      31.645
  O     -215.796    -144.522      30.751
  P     -216.074    -144.472      29.168
  C     -214.147    -143.027      28.247
  O     -214.655    -144.354      28.432
  C     -212.638    -143.065      28.023
  O     -211.937    -143.118      29.291
  C     -212.144    -144.276      27.237
  O     -212.431    -144.132      25.856
  C     -210.673    -144.288      27.599
  O     -209.941    -143.350      26.786
  C     -210.691    -143.813      29.073
  N     -207.678    -147.620      30.642
  C     -207.601    -146.795      29.572
  N     -208.480    -145.832      29.202
  C     -209.507    -145.777      30.051
  C     -209.733    -146.566      31.164
  C     -208.744    -147.533      31.451
  N     -208.773    -148.336      32.589
  N     -210.940    -146.245      31.766
  C     -211.429    -145.262      31.024
  N     -210.571    -144.899      30.014
  O     -217.107    -143.481      28.734
  O     -216.531    -145.973      28.825
  H     -210.290    -142.453      26.980
  H     -217.441    -145.954      28.461
  H     -206.718    -146.925      28.926
  H     -212.376    -144.772      31.187
  H     -209.893    -143.102      29.279
  H     -210.205    -145.271      27.457
  H     -212.622    -145.191      27.631
  H     -212.347    -142.127      27.519
  H     -214.387    -142.439      29.135
  H     -207.940    -148.862      32.778
  H     -209.393    -148.068      33.360
  H     -214.655    -142.567      27.387
  P     -212.187    -145.360      24.861
  C     -213.842    -144.267      23.222
  O     -212.546    -144.840      23.383
  O     -212.813    -146.653      25.252
  O     -210.582    -145.493      24.801
  H     -210.338    -146.425      24.670
  H     -214.581    -145.077      23.153
  H     -213.854    -143.687      22.289
  H     -214.092    -143.610      24.054
  H     -216.497    -144.797      32.651
  H     -217.271    -145.768      31.421
  H     -217.625    -144.060      31.537

 3  4  5  6  7  8  9  10  11  12  22  25  29  30  31  32 0
 6-311+G(2d,p)
 ****
 33  36  37 0
 6-311+G(2d,p)
 ****
 1  2  13  14  15  16  17  18  19  20  21  23  24  26 0
 3-21G
 ****
 27  28  34  35  38  39  40  41  42  43  44  45  46  47  48 0
 3-21G
 ****


