%nproc=1
%NoSave
%Mem=1900MB
#P OB98/GEN NMR

erre ene a

0 1
  C     -272.636     450.285     595.666
  O     -273.832     450.689     595.024
  H     -271.953     451.139     595.696
  H     -272.155     449.469     595.113
  H     -272.849     449.967     596.689
  P     -274.947     449.582     594.697
  C     -274.369     449.572     592.181
  O     -274.444     448.801     593.384
  C     -275.738     449.628     591.496
  O     -275.667     450.586     590.404
  C     -276.188     448.275     590.915
  O     -277.606     448.157     591.089
  C     -275.851     448.412     589.444
  O     -276.628     447.549     588.640
  C     -276.075     449.917     589.196
  N     -275.318     450.386     588.035
  C     -276.064     450.679     586.886
  O     -277.294     450.567     586.896
  N     -275.416     451.045     585.740
  C     -274.115     451.050     585.714
  N     -273.523     451.374     584.533
  C     -273.284     450.707     586.891
  C     -273.942     450.387     588.009
  O     -276.357     450.065     594.638
  O     -274.746     448.496     595.861
  H     -276.369     447.664     587.702
  H     -275.318     448.708     596.619
  H     -272.199     450.722     586.816
  H     -273.409     450.117     588.915
  H     -277.140     450.126     589.036
  H     -274.790     448.164     589.282
  H     -275.681     447.416     591.370
  H     -276.476     450.011     592.215
  H     -274.125     451.573     583.753
  H     -273.647     449.086     591.518
  H     -272.512     451.378     584.383
  H     -274.027     450.584     592.414
  P     -278.200     447.277     592.290
  C     -278.435     445.032     591.080
  O     -277.745     445.745     592.109
  O     -279.670     447.463     592.535
  O     -277.363     447.757     593.582
  H     -277.916     447.674     594.374
  H     -278.068     444.028     591.034
  H     -278.271     445.515     590.140
  H     -279.483     445.019     591.296

 6  7  8  9  10  11  12  13  14  15  16  26  30  31  32  33  35 0
 6-311+G(2d,p)
 ****
 37  38 0
 6-311+G(2d,p)
 ****
 1  2  3  4  5  17  18  19  20  21  22  23  24  25 0
 3-21G
 ****
 27  28  29  34  36  39  40  41  42  43  44  45  46 0
 3-21G
 ****


