%nproc=1
%NoSave
%Mem=1900MB
#P OB98/GEN NMR

erre ene a

0 1
  C      507.561     128.970    -211.187
  O      507.538     127.549    -211.038
  P      506.316     126.790    -211.763
  C      507.821     124.799    -212.456
  O      506.652     125.217    -211.769
  C      508.237     123.393    -212.010
  O      509.023     123.449    -210.782
  C      507.042     122.448    -211.749
  O      507.467     121.127    -212.162
  C      506.910     122.522    -210.242
  O      506.128     121.476    -209.679
  C      508.386     122.548    -209.845
  N      510.062     121.076    -205.246
  C      509.936     120.408    -206.418
  N      509.478     120.879    -207.599
  C      509.118     122.174    -207.496
  C      509.184     122.978    -206.366
  C      509.678     122.380    -205.189
  N      509.785     123.037    -203.992
  N      508.707     124.251    -206.654
  C      508.303     124.179    -207.909
  N      508.611     122.971    -208.486
  O      506.459     127.222    -213.296
  O      504.970     127.141    -211.196
  H      506.409     120.624    -210.074
  H      505.843     127.946    -213.509
  H      510.247     119.376    -206.403
  H      507.789     124.967    -208.446
  H      508.857     121.563    -209.956
  H      506.422     123.471    -209.967
  H      506.137     122.714    -212.293
  H      508.889     122.964    -212.785
  H      508.638     125.493    -212.264
  H      510.143     122.524    -203.204
  H      509.502     124.007    -203.909
  H      507.634     124.837    -213.543
  P      506.579     120.345    -213.239
  C      508.429     120.423    -215.027
  O      507.664     119.592    -214.170
  O      506.148     121.564    -214.194
  O      505.444     119.540    -212.713
  H      506.915     122.106    -214.456
  H      509.174     119.804    -215.523
  H      508.950     121.194    -214.445
  H      507.779     120.889    -215.776
  H      508.408     129.369    -210.670
  H      506.664     129.386    -210.777
  H      507.628     129.219    -212.226

 3  4  5  6  7  8  9  10  11  12  22  25  29  30  31  32 0
 6-311+G(2d,p)
 ****
 33  36  37 0
 6-311+G(2d,p)
 ****
 1  2  13  14  15  16  17  18  19  20  21  23  24  26 0
 3-21G
 ****
 27  28  34  35  38  39  40  41  42  43  44  45  46  47  48 0
 3-21G
 ****


