%nproc=1
%NoSave
%Mem=1900MB
#P OB98/GEN NMR

erre ene a

0 1
  C      337.726      32.267    -128.429
  O      338.697      31.272    -128.061
  P      339.711      31.435    -126.829
  C      341.731      32.241    -128.238
  O      340.791      32.560    -127.217
  C      342.492      33.488    -128.692
  O      341.612      34.385    -129.406
  C      343.058      34.345    -127.564
  O      344.190      33.756    -126.948
  C      343.352      35.651    -128.308
  O      344.628      35.610    -128.956
  C      342.228      35.696    -129.356
  N      341.231      36.723    -129.087
  C      341.362      37.920    -129.805
  O      342.319      38.094    -130.554
  N      340.404      38.888    -129.641
  C      339.462      38.723    -128.760
  N      338.531      39.713    -128.647
  C      339.372      37.540    -127.889
  C      340.279      36.589    -128.104
  O      340.321      30.151    -126.374
  O      338.849      32.116    -125.661
  H      339.229      31.876    -124.794
  H      344.678      36.396    -129.539
  H      338.600      37.464    -127.133
  H      340.275      35.677    -127.515
  H      342.649      35.850    -130.358
  H      343.365      36.516    -127.631
  H      342.273      34.523    -126.817
  H      343.298      33.170    -129.370
  H      338.618      40.508    -129.270
  H      341.186      31.826    -129.097
  H      337.748      39.679    -128.011
  H      342.420      31.473    -127.870
  P      344.047      33.345    -125.402
  C      344.999      35.549    -124.405
  O      343.878      34.696    -124.559
  O      345.516      32.833    -125.020
  O      343.016      32.304    -125.134
  H      345.446      32.059    -124.422
  H      344.647      36.572    -124.263
  H      345.653      35.523    -125.285
  H      345.565      35.244    -123.524
  H      337.172      31.927    -129.279
  H      338.226      33.181    -128.672
  H      337.057      32.433    -127.610

 3  4  5  6  7  8  9  10  11  12  13  24  27  28  29  30  32 0
 6-311+G(2d,p)
 ****
 34  35 0
 6-311+G(2d,p)
 ****
 1  2  14  15  16  17  18  19  20  21  22  23  25  26 0
 3-21G
 ****
 31  33  36  37  38  39  40  41  42  43  44  45  46 0
 3-21G
 ****


