%nproc=1
%NoSave
%Mem=1900MB
#P OB98/GEN NMR

erre ene a

0 1
  C       -7.407       9.279    -253.718
  O       -6.084       8.954    -254.096
  H       -7.481       9.242    -252.630
  H       -8.113       8.560    -254.139
  H       -7.663      10.289    -254.052
  P       -5.724       8.935    -255.658
  C       -7.191       8.411    -257.718
  O       -6.890       8.090    -256.366
  C       -8.420       7.640    -258.179
  O       -9.542       7.917    -257.315
  C       -8.870       7.979    -259.599
  O       -8.082       7.281    -260.549
  C      -10.314       7.509    -259.553
  O      -10.358       6.070    -259.652
  C      -10.739       7.955    -258.140
  N      -14.680      10.890    -259.401
  C      -14.429       9.564    -259.703
  N      -15.337       8.945    -260.488
  N      -13.371       8.911    -259.289
  C      -12.517       9.677    -258.573
  C      -12.649      11.008    -258.227
  C      -13.848      11.699    -258.639
  O      -14.117      12.872    -258.380
  N      -11.544      11.458    -257.551
  C      -10.763      10.399    -257.456
  N      -11.301       9.294    -258.076
  O       -4.342       8.473    -256.014
  O       -6.003      10.434    -256.139
  H      -11.302       5.821    -259.660
  H       -5.196      10.978    -256.090
  H      -15.503      11.338    -259.766
  H       -9.806      10.374    -256.950
  H      -11.473       7.275    -257.693
  H      -10.925       7.907    -260.360
  H      -15.994       9.464    -261.052
  H       -8.864       9.063    -259.779
  H      -15.147       7.987    -260.760
  H       -8.198       6.569    -258.085
  H       -6.318       8.143    -258.322
  H       -7.370       9.492    -257.823
  P       -8.114       7.683    -262.107
  C      -10.083       7.943    -263.759
  O       -9.578       7.275    -262.611
  O       -6.999       7.123    -262.918
  O       -8.174       9.277    -262.109
  H       -7.285       9.711    -262.094
  H      -11.063       7.576    -263.983
  H       -9.435       7.761    -264.591
  H      -10.131       8.995    -263.567

 6  7  8  9  10  11  12  13  14  15  26  29  33  34 0
 6-311+G(2d,p)
 ****
 36  38  39  40  41 0
 6-311+G(2d,p)
 ****
 1  2  3  4  5  16  17  18  19  20  21  22  23  24  25 0
 3-21G
 ****
 27  28  30  31  32  35  37  42  43  44  45  46  47 0
 3-21G
 ****
 48  49 0
 3-21G
 ****


