%nproc=1
%NoSave
%Mem=1900MB
#P OB98/GEN NMR

erre ene a

0 1
  C      286.632    -262.822     150.353
  O      287.213    -263.860     151.118
  H      286.216    -263.250     149.438
  H      287.392    -262.082     150.082
  H      285.828    -262.339     150.915
  P      287.866    -263.439     152.522
  C      290.296    -263.520     151.598
  O      289.263    -262.731     152.178
  C      291.405    -262.612     151.076
  O      290.847    -261.634     150.165
  C      292.103    -261.803     152.161
  O      293.051    -262.568     152.882
  C      292.724    -260.683     151.340
  O      293.971    -261.090     150.760
  C      291.677    -260.453     150.244
  N      291.300    -255.407     149.560
  C      292.188    -256.315     149.102
  N      292.211    -257.647     149.321
  C      291.166    -258.021     150.077
  C      290.179    -257.212     150.611
  C      290.269    -255.839     150.323
  N      289.380    -254.910     150.807
  N      289.297    -257.955     151.367
  C      289.736    -259.194     151.284
  N      290.860    -259.284     150.511
  O      288.296    -264.845     153.156
  O      286.968    -262.670     153.432
  H      294.521    -261.423     151.497
  H      287.630    -265.122     153.812
  H      292.993    -255.919     148.487
  H      289.282    -260.052     151.766
  H      292.135    -260.310     149.256
  H      292.917    -259.808     151.959
  H      291.362    -261.368     152.843
  H      292.126    -263.222     150.520
  H      289.885    -264.102     150.767
  H      290.685    -264.206     152.356
  H      289.543    -253.935     150.619
  H      288.674    -255.206     151.472
  P      293.179    -262.305     154.458
  C      295.212    -260.674     154.342
  O      293.835    -260.855     154.647
  O      294.338    -263.309     154.919
  O      291.919    -262.520     155.227
  H      294.145    -263.649     155.814
  H      295.486    -259.656     154.522
  H      295.384    -260.913     153.313
  H      295.802    -261.317     154.961

 6  7  8  9  10  11  12  13  14  15  25  28  32  33  34  35 0
 6-311+G(2d,p)
 ****
 36  37  40 0
 6-311+G(2d,p)
 ****
 1  2  3  4  5  16  17  18  19  20  21  22  23  24 0
 3-21G
 ****
 26  27  29  30  31  38  39 41  42  43  44  45  46  47  48 0
 3-21G
 ****


