%nproc=1
%NoSave
%Mem=1900MB
#P OB98/GEN NMR

erre ene a

0 1
  C     -115.652     -26.667     -73.218
  O     -116.699     -27.616     -73.095
  P     -116.474     -29.071     -73.738
  C     -117.887     -28.634     -75.883
  O     -116.609     -28.898     -75.327
  C     -117.937     -29.076     -77.347
  O     -116.840     -28.445     -78.057
  C     -117.811     -30.587     -77.568
  O     -118.586     -30.906     -78.730
  C     -116.336     -30.766     -77.875
  O     -116.062     -31.976     -78.575
  C     -116.055     -29.494     -78.666
  N     -112.443     -26.629     -80.749
  C     -113.766     -26.798     -81.121
  N     -114.193     -26.049     -82.160
  N     -114.589     -27.622     -80.529
  C     -114.022     -28.290     -79.497
  C     -112.720     -28.238     -79.057
  C     -111.830     -27.296     -79.696
  O     -110.678     -27.052     -79.343
  N     -112.497     -29.129     -78.041
  C     -113.682     -29.659     -77.813
  N     -114.648     -29.147     -78.638
  O     -117.807     -29.851     -73.327
  O     -115.232     -29.785     -73.305
  H     -116.233     -32.721     -77.962
  H     -117.680     -30.355     -72.500
  H     -111.861     -25.966     -81.231
  H     -113.901     -30.405     -77.066
  H     -116.355     -29.579     -79.719
  H     -115.763     -30.783     -76.939
  H     -113.622     -25.373     -82.643
  H     -118.142     -31.184     -76.713
  H     -115.166     -26.129     -82.433
  H     -118.869     -28.700     -77.788
  H     -118.077     -27.556     -75.836
  H     -118.656     -29.146     -75.296
  P     -119.549     -32.185     -78.661
  C     -117.771     -33.795     -79.636
  O     -118.623     -33.484     -78.551
  O     -120.131     -32.274     -80.153
  O     -120.658     -32.082     -77.666
  H     -121.036     -32.634     -80.130
  H     -116.954     -34.424     -79.272
  H     -117.347     -32.893     -80.088
  H     -118.332     -34.350     -80.392
  H     -115.943     -25.752     -72.746
  H     -115.454     -26.487     -74.254
  H     -114.769     -27.047     -72.747

 3  4  5  6  7  8  9  10  11  12  23  26  30  31 0
 6-311+G(2d,p)
 ****
 33  35  36  37  38 0
 6-311+G(2d,p)
 ****
 1  2  13  14  15  16  17  18  19  20  21  22  24  25 0
 3-21G
 ****
 27  28  29  32  34  39  40  41  42  43  44  45  46  47  48  49 0
 3-21G
 ****


