%nproc=1
%NoSave
%Mem=1900MB
#P OB98/GEN NMR

erre ene a

0 1
  C     -492.210     238.219     -57.774
  O     -493.487     238.395     -57.195
  H     -491.673     239.168     -57.738
  H     -492.308     237.903     -58.813
  H     -491.642     237.472     -57.213
  P     -494.433     237.095     -57.129
  C     -494.148     236.752     -54.561
  O     -495.034     237.052     -55.644
  C     -494.867     236.986     -53.237
  O     -495.054     238.406     -53.019
  C     -496.272     236.373     -53.173
  O     -496.231     234.972     -52.934
  C     -496.876     237.180     -52.037
  O     -496.521     236.645     -50.752
  C     -496.256     238.564     -52.222
  N     -500.414     241.447     -51.545
  C     -499.692     240.685     -50.691
  N     -498.589     239.962     -50.943
  C     -498.227     240.086     -52.240
  C     -498.859     240.834     -53.222
  C     -500.012     241.531     -52.830
  N     -500.759     242.293     -53.708
  N     -498.207     240.683     -54.438
  C     -497.198     239.870     -54.188
  N     -497.160     239.501     -52.870
  O     -493.385     235.887     -57.157
  O     -495.439     236.989     -58.229
  H     -497.054     237.151     -50.100
  H     -493.334     235.521     -58.062
  H     -500.056     240.663     -49.656
  H     -496.473     239.526     -54.917
  H     -495.948     239.010     -51.268
  H     -497.968     237.178     -52.102
  H     -496.811     236.596     -54.098
  H     -494.229     236.605     -52.415
  H     -493.266     237.409     -54.615
  H     -493.826     235.709     -54.646
  H     -501.605     242.705     -53.379
  H     -500.526     242.268     -54.696
  P     -497.285     234.074     -53.729
  C     -495.686     232.985     -55.490
  O     -496.483     232.816     -54.324
  O     -497.641     234.933     -55.031
  O     -498.514     233.704     -52.951
  H     -498.581     234.807     -55.271
  H     -495.226     232.053     -55.746
  H     -494.928     233.717     -55.301
  H     -496.304     233.312     -56.300

 6  7  8  9  10  11  12  13  14  15  25  28  32  33  34  35 0
 6-311+G(2d,p)
 ****
 36  37  40 0
 6-311+G(2d,p)
 ****
 1  2  3  4  5  16  17  18  19  20  21  22  23  24 0
 3-21G
 ****
 26  27  29  30  31  38  39 41  42  43  44  45  46  47  48 0
 3-21G
 ****


