%nproc=1
%NoSave
%Mem=1900MB
#P OB98/GEN NMR

erre ene a

0 1
  C      175.112     130.210    -119.050
  O      176.071     130.551    -118.040
  P      177.630     130.168    -118.138
  C      177.500     127.748    -117.258
  O      177.775     128.585    -118.370
  C      178.778     127.117    -116.686
  O      179.377     126.213    -117.668
  C      179.865     128.134    -116.282
  O      180.470     127.635    -115.084
  C      180.825     128.062    -117.465
  O      182.114     128.572    -117.183
  C      180.779     126.552    -117.737
  N      181.350     126.128    -119.015
  C      182.476     125.295    -118.981
  O      183.007     124.972    -117.920
  N      183.004     124.854    -120.174
  C      182.461     125.213    -121.299
  N      183.024     124.729    -122.442
  C      181.288     126.104    -121.382
  C      180.790     126.516    -120.217
  O      178.445     130.675    -116.990
  O      178.142     130.809    -119.517
  H      179.060     131.121    -119.405
  H      182.557     127.955    -116.572
  H      180.864     126.373    -122.337
  H      179.910     127.152    -120.189
  H      181.281     126.018    -116.919
  H      180.403     128.641    -118.292
  H      179.476     129.139    -116.088
  H      178.498     126.498    -115.823
  H      183.826     124.112    -122.342
  H      176.829     126.944    -117.583
  H      182.682     124.939    -123.368
  H      176.985     128.334    -116.483
  P      179.821     127.992    -113.658
  C      181.046     130.273    -113.992
  O      179.932     129.581    -113.457
  O      180.943     127.458    -112.642
  O      178.501     127.357    -113.351
  H      180.525     127.245    -111.784
  H      180.693     131.188    -114.479
  H      181.598     129.674    -114.722
  H      181.720     130.549    -113.170
  H      174.147     130.570    -118.761
  H      175.077     129.147    -119.164
  H      175.397     130.659    -119.979

 3  4  5  6  7  8  9  10  11  12  13  24  27  28  29  30  32 0
 6-311+G(2d,p)
 ****
 34  35 0
 6-311+G(2d,p)
 ****
 1  2  14  15  16  17  18  19  20  21  22  23  25  26 0
 3-21G
 ****
 31  33  36  37  38  39  40  41  42  43  44  45  46 0
 3-21G
 ****


