%nproc=1
%NoSave
%Mem=1900MB
#P OB98/GEN NMR

erre ene a

0 1
  C      367.800    -487.951    -413.593
  O      368.068    -487.165    -414.766
  P      368.975    -487.693    -415.988
  C      371.288    -487.453    -414.870
  O      370.323    -488.349    -415.408
  C      372.692    -488.064    -414.873
  O      373.645    -487.132    -414.269
  C      372.809    -489.397    -414.115
  O      373.709    -490.221    -414.872
  C      373.432    -488.955    -412.796
  O      374.031    -490.013    -412.065
  C      374.415    -487.893    -413.314
  N      374.986    -487.022    -412.293
  C      376.142    -487.459    -411.634
  O      376.629    -488.565    -411.859
  N      376.721    -486.626    -410.701
  C      376.193    -485.471    -410.444
  N      376.817    -484.688    -409.522
  C      374.967    -484.979    -411.103
  C      374.429    -485.793    -412.003
  O      369.220    -486.656    -417.037
  O      368.177    -488.935    -416.603
  H      368.300    -488.948    -417.571
  H      374.773    -490.359    -412.584
  H      374.565    -484.005    -410.870
  H      373.539    -485.493    -412.558
  H      375.223    -488.393    -413.868
  H      372.649    -488.521    -412.167
  H      371.859    -489.925    -414.003
  H      373.008    -488.192    -415.921
  H      377.668    -485.059    -409.099
  H      371.008    -487.220    -413.838
  H      376.502    -483.772    -409.255
  H      371.272    -486.521    -415.443
  P      373.132    -491.431    -415.750
  C      373.443    -493.372    -414.038
  O      372.549    -492.531    -414.740
  O      374.479    -492.141    -416.262
  O      372.278    -491.049    -416.911
  H      374.294    -492.606    -417.093
  H      373.118    -493.443    -412.993
  H      374.471    -493.005    -414.066
  H      373.409    -494.372    -414.486
  H      367.178    -487.393    -412.924
  H      368.722    -488.191    -413.106
  H      367.300    -488.854    -413.875

 3  4  5  6  7  8  9  10  11  12  13  24  27  28  29  30  32 0
 6-311+G(2d,p)
 ****
 34  35 0
 6-311+G(2d,p)
 ****
 1  2  14  15  16  17  18  19  20  21  22  23  25  26 0
 3-21G
 ****
 31  33  36  37  38  39  40  41  42  43  44  45  46 0
 3-21G
 ****


