%nproc=1
%NoSave
%Mem=1900MB
#P OB98/GEN NMR

erre ene a

0 1
  C      719.409     565.222    -374.489
  O      717.991     565.145    -374.280
  P      717.264     565.748    -372.985
  C      715.417     563.946    -373.039
  O      715.713     565.338    -373.008
  C      714.284     563.634    -374.025
  O      714.735     563.818    -375.375
  C      713.772     562.198    -373.969
  O      712.934     562.006    -372.839
  C      713.048     562.089    -375.319
  O      711.737     562.656    -375.253
  C      713.983     562.924    -376.227
  N      714.846     562.097    -377.047
  C      714.227     561.065    -377.776
  O      713.014     560.861    -377.633
  N      714.989     560.279    -378.591
  C      716.281     560.462    -378.642
  N      716.983     559.660    -379.488
  C      716.981     561.482    -377.842
  C      716.217     562.248    -377.077
  O      717.502     567.209    -372.778
  O      717.848     564.905    -371.753
  H      711.851     563.620    -375.268
  H      717.867     565.472    -370.959
  H      718.051     561.572    -377.893
  H      716.650     563.019    -376.456
  H      713.380     563.569    -376.878
  H      712.947     561.042    -375.641
  H      714.607     561.497    -373.942
  H      713.475     564.338    -373.840
  H      716.469     558.980    -380.033
  H      715.111     563.638    -372.028
  H      717.982     559.716    -379.601
  H      716.324     563.398    -373.306
  P      713.213     560.793    -371.832
  C      711.091     559.423    -372.314
  O      711.799     560.214    -371.360
  O      714.184     561.071    -370.732
  O      713.767     559.626    -372.793
  H      714.399     559.077    -372.291
  H      710.385     558.782    -371.768
  H      711.777     558.796    -372.884
  H      710.537     560.082    -372.981
  H      719.659     564.753    -375.418
  H      719.915     564.722    -373.690
  H      719.710     566.248    -374.515

 3  4  5  6  7  8  9  10  11  12  13  23  27  28  29  30  32 0
 6-311+G(2d,p)
 ****
 34  35 0
 6-311+G(2d,p)
 ****
 1  2  14  15  16  17  18  19  20  21  22  24  25  26 0
 3-21G
 ****
 31  33  36  37  38  39  40  41  42  43  44  45  46 0
 3-21G
 ****


