%nproc=1
%NoSave
%Mem=1900MB
#P OB98/GEN NMR

erre ene a

0 1
  C        3.595       1.216      -3.048
  O        3.645       1.086      -1.639
  P        5.027       1.306      -0.863
  C        6.494       3.409      -0.417
  O        5.556       2.767      -1.253
  C        7.318       4.441      -1.198
  O        8.278       3.721      -2.009
  C        6.514       5.301      -2.168
  O        7.287       6.456      -2.499
  C        6.412       4.395      -3.374
  O        6.108       5.115      -4.566
  C        7.783       3.672      -3.368
  N        7.660       2.274      -3.818
  C        7.674       2.051      -5.191
  O        7.859       2.948      -6.013
  N        7.384       0.776      -5.593
  C        7.042      -0.252      -4.766
  O        6.494      -1.281      -5.144
  C        7.278      -0.019      -3.333
  C        7.547       1.224      -2.926
  O        6.026       0.320      -1.631
  O        4.979       1.020       0.598
  H        6.102       4.459      -5.301
  H        6.099      -0.526      -1.151
  H        7.252       0.649      -6.589
  H        7.164      -0.853      -2.655
  H        7.674       1.437      -1.869
  H        8.504       4.175      -4.024
  H        5.605       3.670      -3.212
  H        5.529       5.597      -1.795
  H        7.874       5.070      -0.494
  H        7.147       2.657       0.035
  H        5.983       3.913       0.410
  P        6.505       7.763      -3.000
  C        4.494       9.098      -2.127
  O        5.172       7.858      -2.115
  O        6.308       7.881      -4.474
  O        7.399       8.962      -2.422
  H        7.197       9.785      -2.903
  H        3.428       8.918      -1.963
  H        4.623       9.616      -3.081
  H        4.877       9.725      -1.319
  H        2.597       1.035      -3.388
  H        4.258       0.506      -3.495
  H        3.892       2.206      -3.326

 3  4  5  6  7  8  9  10  11  12  13  23  28  29  30  31  32 0
 6-311+G(2d,p)
 ****
 33  34 0
 6-311+G(2d,p)
 ****
 1  2  14  15  16  17  18  19  20  21  22  24  25  26  27 0
 3-21G
 ****
 35  36  37  38  39  40  41  42  43  44  45 0
 3-21G
 ****


