%nproc=1
%NoSave
%Mem=1900MB
#P OB98/GEN NMR

erre ene a

0 1
  C      -98.763      -1.469      59.689
  O      -99.044      -0.780      60.886
  H      -98.077      -2.292      59.916
  H      -98.280      -0.808      58.966
  H      -99.679      -1.886      59.264
  P      -99.877       0.592      60.817
  C      -98.051       2.099      61.806
  O      -99.311       1.480      62.039
  C      -97.245       2.232      63.099
  O      -97.859       3.228      63.956
  C      -97.143       0.930      63.901
  O      -95.789       0.728      64.311
  C      -98.030       1.182      65.112
  O      -97.668       0.369      66.223
  C      -97.855       2.694      65.293
  N      -98.897       3.293      66.119
  C      -98.848       3.011      67.487
  O      -97.979       2.261      67.936
  N      -99.803       3.550      68.310
  C     -100.757       4.266      67.806
  N     -101.679       4.764      68.673
  C     -100.875       4.551      66.361
  C      -99.918       4.045      65.585
  O     -101.359       0.422      60.800
  O      -99.303       1.346      59.529
  H      -96.730       0.554      66.451
  H      -99.955       2.027      59.229
  H     -101.696       5.145      65.986
  H      -99.918       4.210      64.513
  H      -96.880       2.921      65.748
  H      -99.073       0.958      64.853
  H      -97.468       0.054      63.346
  H      -96.251       2.621      62.845
  H     -101.561       4.547      69.654
  H      -98.222       3.085      61.360
  H     -102.468       5.328      68.391
  H      -97.491       1.477      61.098
  P      -95.079      -0.608      63.772
  C      -93.925      -0.551      66.092
  O      -93.823      -0.919      64.724
  O      -94.411      -0.135      62.397
  O      -96.023      -1.747      63.569
  H      -94.963      -0.413      61.642
  H      -93.022      -0.816      66.601
  H      -94.750      -1.065      66.539
  H      -94.080       0.505      66.167

 6  7  8  9  10  11  12  13  14  15  16  26  30  31  32  33  35 0
 6-311+G(2d,p)
 ****
 37  38 0
 6-311+G(2d,p)
 ****
 1  2  3  4  5  17  18  19  20  21  22  23  24  25 0
 3-21G
 ****
 27  28  29  34  36  39  40  41  42  43  44  45  46 0
 3-21G
 ****


