%nproc=1
%NoSave
%Mem=1900MB
#P OB98/GEN NMR

erre ene a

0 1
  C     -432.453     476.991     721.620
  O     -432.034     477.585     720.404
  H     -431.632     477.066     722.346
  H     -432.698     475.932     721.471
  H     -433.318     477.525     722.015
  P     -432.983     477.471     719.117
  C     -431.396     475.983     717.724
  O     -432.643     476.055     718.425
  C     -431.270     474.629     717.000
  O     -430.110     474.682     716.132
  C     -431.090     473.443     717.964
  O     -431.796     472.319     717.425
  C     -429.601     473.192     717.925
  O     -429.266     471.870     718.283
  C     -429.246     473.584     716.474
  N     -427.828     473.946     716.356
  C     -426.978     472.952     715.854
  O     -427.436     471.853     715.513
  N     -425.633     473.185     715.784
  C     -425.155     474.311     716.248
  N     -423.809     474.480     716.199
  C     -426.020     475.375     716.819
  C     -427.331     475.128     716.845
  O     -432.982     478.638     718.187
  O     -434.440     477.219     719.745
  H     -428.305     471.811     718.446
  H     -434.891     478.073     719.884
  H     -425.570     476.298     717.198
  H     -428.026     475.853     717.253
  H     -429.464     472.755     715.792
  H     -429.090     473.876     718.630
  H     -431.443     473.651     718.981
  H     -432.150     474.490     716.361
  H     -423.267     473.719     715.821
  H     -430.594     476.080     718.463
  H     -423.318     475.303     716.555
  H     -431.335     476.796     717.000
  P     -433.354     472.089     717.770
  C     -433.076     470.815     719.978
  O     -433.540     472.017     719.364
  O     -434.000     470.969     717.023
  O     -434.041     473.487     717.380
  H     -434.952     473.330     717.094
  H     -433.244     470.866     721.033
  H     -432.029     470.699     719.789
  H     -433.607     469.979     719.572

 6  7  8  9  10  11  12  13  14  15  16  26  30  31  32  33  35 0
 6-311+G(2d,p)
 ****
 37  38 0
 6-311+G(2d,p)
 ****
 1  2  3  4  5  17  18  19  20  21  22  23  24  25 0
 3-21G
 ****
 27  28  29  34  36  39  40  41  42  43  44  45  46 0
 3-21G
 ****


