%nproc=1
%NoSave
%Mem=1900MB
#P OB98/GEN NMR

erre ene a

0 1
  C     -218.912     -31.447    -266.903
  O     -219.697     -32.517    -267.380
  P     -219.315     -34.052    -267.161
  C     -219.164     -34.708    -269.671
  O     -218.472     -34.548    -268.437
  C     -218.295     -35.335    -270.771
  O     -217.135     -34.506    -270.997
  C     -217.767     -36.701    -270.315
  O     -218.572     -37.856    -270.448
  C     -216.377     -36.812    -270.924
  O     -216.362     -37.579    -272.129
  C     -215.996     -35.354    -271.214
  N     -210.964     -34.900    -270.819
  C     -211.725     -35.208    -271.931
  N     -211.039     -35.628    -273.016
  N     -213.028     -35.128    -271.956
  C     -213.575     -34.787    -270.767
  C     -212.925     -34.447    -269.599
  C     -211.483     -34.498    -269.597
  O     -210.774     -34.315    -268.608
  N     -213.804     -34.225    -268.571
  C     -214.985     -34.474    -269.101
  N     -214.895     -34.856    -270.418
  O     -220.384     -34.944    -266.619
  O     -218.168     -33.935    -266.027
  H     -216.656     -38.482    -271.914
  H     -218.245     -34.720    -265.449
  H     -209.963     -35.055    -270.832
  H     -215.929     -34.420    -268.566
  H     -215.714     -35.234    -272.266
  H     -215.687     -37.310    -270.232
  H     -210.053     -35.837    -272.986
  H     -217.595     -36.623    -269.230
  H     -211.570     -36.020    -273.787
  H     -218.826     -35.367    -271.726
  H     -219.525     -33.724    -269.977
  H     -220.049     -35.338    -269.510
  P     -218.209     -39.327    -269.942
  C     -218.681     -40.391    -272.224
  O     -217.719     -40.187    -271.204
  O     -219.626     -39.986    -269.591
  O     -217.301     -39.379    -268.754
  H     -219.501     -40.721    -268.960
  H     -218.359     -41.217    -272.860
  H     -218.765     -39.485    -272.830
  H     -219.661     -40.635    -271.796
  H     -219.372     -30.519    -267.173
  H     -217.935     -31.500    -267.337
  H     -218.833     -31.510    -265.838

 3  4  5  6  7  8  9  10  11  12  23  26  30  31 0
 6-311+G(2d,p)
 ****
 33  35  36  37  38 0
 6-311+G(2d,p)
 ****
 1  2  13  14  15  16  17  18  19  20  21  22  24  25 0
 3-21G
 ****
 27  28  29  32  34  39  40  41  42  43  44  45  46  47  48  49 0
 3-21G
 ****


