%nproc=1
%NoSave
%Mem=1900MB
#P OB98/GEN NMR

erre ene a

0 1
  C      -43.549      95.927    -101.461
  O      -44.772      96.221    -100.824
  H      -43.408      94.843    -101.471
  H      -42.721      96.379    -100.908
  H      -43.552      96.293    -102.492
  P      -45.262      97.750    -100.833
  C      -44.642      99.897     -99.511
  O      -44.460      98.496     -99.658
  C      -44.529     100.295     -98.039
  O      -45.765      99.945     -97.362
  C      -43.378      99.605     -97.301
  O      -42.795     100.541     -96.389
  C      -44.063      98.498     -96.522
  O      -43.324      98.101     -95.367
  C      -45.430      99.127     -96.225
  N      -46.445      98.109     -95.973
  C      -46.309      97.363     -94.798
  O      -45.362      97.573     -94.036
  N      -47.209      96.361     -94.539
  C      -48.114      96.069     -95.419
  N      -48.959      95.044     -95.119
  C      -48.255      96.784     -96.704
  C      -47.400      97.786     -96.909
  O      -46.753      97.665    -100.262
  O      -45.197      98.434    -102.158
  H      -43.946      97.691     -94.727
  H      -47.321      98.359    -100.650
  H      -49.009      96.486     -97.418
  H      -47.421      98.362     -97.825
  H      -45.368      99.787     -95.348
  H      -44.181      97.618     -97.164
  H      -42.606      99.221     -97.973
  H      -44.433     101.386     -97.981
  H      -48.820      94.567     -94.236
  H      -45.638     100.166     -99.875
  H      -49.671      94.704     -95.747
  H      -43.893     100.427    -100.108
  P      -41.500     101.337     -96.903
  C      -38.931     100.964     -96.937
  O      -40.201     100.479     -96.522
  O      -41.428     102.597     -95.919
  O      -41.585     101.758     -98.333
  H      -41.677     103.410     -96.398
  H      -38.168     100.289     -96.611
  H      -38.760     101.929     -96.508
  H      -38.909     101.039     -98.004

 6  7  8  9  10  11  12  13  14  15  16  26  30  31  32  33  35 0
 6-311+G(2d,p)
 ****
 37  38 0
 6-311+G(2d,p)
 ****
 1  2  3  4  5  17  18  19  20  21  22  23  24  25 0
 3-21G
 ****
 27  28  29  34  36  39  40  41  42  43  44  45  46 0
 3-21G
 ****


