%nproc=1
%NoSave
%Mem=1900MB
#P OB98/GEN NMR

erre ene a

0 1
  C     -469.123     876.343     525.266
  O     -470.362     876.148     524.608
  H     -468.712     875.362     525.520
  H     -469.261     876.917     526.178
  H     -468.416     876.857     524.605
  P     -471.173     877.443     524.125
  C     -470.533     877.620     521.632
  O     -471.507     877.204     522.568
  C     -470.874     877.081     520.250
  O     -470.590     875.662     520.173
  C     -472.344     877.246     519.847
  O     -472.566     878.559     519.377
  C     -472.450     876.180     518.758
  O     -471.860     876.668     517.542
  C     -471.633     875.043     519.345
  N     -474.140     870.631     519.431
  C     -473.555     871.302     518.378
  N     -473.711     870.747     517.142
  N     -472.911     872.435     518.495
  C     -472.907     872.917     519.755
  C     -473.456     872.357     520.884
  C     -474.135     871.074     520.749
  O     -474.651     870.437     521.656
  N     -473.317     873.175     521.994
  C     -472.633     874.206     521.532
  N     -472.375     874.096     520.180
  O     -470.538     878.766     524.403
  O     -472.600     877.304     524.832
  H     -471.946     875.959     516.878
  H     -472.616     877.765     525.690
  H     -474.644     869.775     519.265
  H     -472.303     875.046     522.129
  H     -471.108     874.452     518.567
  H     -473.492     875.929     518.523
  H     -474.405     870.045     516.960
  H     -473.019     876.985     520.670
  H     -473.312     871.231     516.361
  H     -470.207     877.563     519.510
  H     -469.556     877.241     521.963
  H     -470.479     878.712     521.591
  P     -474.041     879.205     519.398
  C     -473.652     880.236     521.748
  O     -473.931     880.477     520.358
  O     -475.145     878.242     519.766
  O     -474.225     879.861     517.956
  H     -474.584     879.239     517.270
  H     -473.606     881.169     522.270
  H     -472.714     879.729     521.841
  H     -474.428     879.631     522.168

 6  7  8  9  10  11  12  13  14  15  26  29  33  34 0
 6-311+G(2d,p)
 ****
 36  38  39  40  41 0
 6-311+G(2d,p)
 ****
 1  2  3  4  5  16  17  18  19  20  21  22  23  24  25 0
 3-21G
 ****
 27  28  30  31  32  35  37  42  43  44  45  46  47 0
 3-21G
 ****
 48  49 0
 3-21G
 ****


