%nproc=1
%NoSave
%Mem=1900MB
#P OB98/GEN NMR

erre ene a

0 1
  C     -249.374     593.335    -270.439
  O     -248.803     593.544    -271.723
  P     -248.731     592.305    -272.737
  C     -247.152     590.250    -273.050
  O     -247.607     591.295    -272.193
  C     -246.052     589.442    -272.364
  O     -244.862     590.273    -272.205
  C     -246.429     588.919    -270.974
  O     -245.783     587.652    -270.786
  C     -245.792     589.944    -270.047
  O     -245.623     589.476    -268.719
  C     -244.499     590.219    -270.808
  N     -243.837     591.455    -270.376
  C     -242.773     591.337    -269.488
  O     -242.360     590.260    -269.036
  N     -242.216     592.509    -269.055
  C     -242.667     593.756    -269.347
  O     -242.201     594.775    -268.830
  C     -243.788     593.831    -270.291
  C     -244.320     592.701    -270.762
  O     -248.066     592.936    -274.056
  O     -250.050     591.657    -273.036
  H     -245.084     588.671    -268.764
  H     -248.746     593.134    -274.712
  H     -241.435     592.445    -268.415
  H     -244.154     594.820    -270.572
  H     -245.155     592.717    -271.443
  H     -243.807     589.381    -270.694
  H     -246.431     590.845    -270.004
  H     -247.506     588.815    -270.817
  H     -245.777     588.611    -273.024
  H     -246.763     590.691    -273.966
  H     -248.000     589.608    -273.324
  P     -246.545     586.525    -269.927
  C     -247.477     586.419    -267.481
  O     -246.664     587.084    -268.432
  O     -245.417     585.398    -269.829
  O     -247.815     586.041    -270.568
  H     -244.527     585.771    -269.641
  H     -247.464     585.338    -267.639
  H     -248.493     586.786    -267.558
  H     -247.090     586.632    -266.487
  H     -249.349     594.250    -269.885
  H     -248.815     592.587    -269.917
  H     -250.388     593.011    -270.548

 3  4  5  6  7  8  9  10  11  12  13  23  28  29  30  31  32 0
 6-311+G(2d,p)
 ****
 33  34 0
 6-311+G(2d,p)
 ****
 1  2  14  15  16  17  18  19  20  21  22  24  25  26 0
 3-21G
 ****
 27  35  36  37  38  39  40  41  42  43  44  45 0
 3-21G
 ****


