%nproc=1
%NoSave
%Mem=1900MB
#P OB98/GEN NMR

erre ene a

0 1
  C     -366.500    -217.109      14.640
  O     -365.483    -217.234      13.659
  P     -364.233    -218.188      13.979
  C     -364.888    -219.968      12.201
  O     -364.640    -219.689      13.571
  C     -363.948    -221.067      11.692
  O     -364.016    -222.214      12.582
  C     -364.293    -221.563      10.283
  O     -363.085    -221.926       9.600
  C     -365.069    -222.836      10.537
  O     -365.021    -223.717       9.411
  C     -364.355    -223.368      11.780
  N     -364.338    -227.794      14.222
  C     -363.274    -227.017      13.811
  N     -362.043    -227.534      13.998
  N     -363.406    -225.836      13.266
  C     -364.698    -225.446      13.135
  C     -365.837    -226.122      13.520
  C     -365.679    -227.433      14.108
  O     -366.578    -228.186      14.472
  N     -366.967    -225.395      13.253
  C     -366.526    -224.295      12.672
  N     -365.158    -224.298      12.543
  O     -364.213    -218.225      15.585
  O     -362.928    -217.707      13.442
  H     -364.078    -223.897       9.233
  H     -363.481    -217.674      15.919
  H     -364.186    -228.703      14.626
  H     -367.141    -223.491      12.303
  H     -363.413    -223.867      11.518
  H     -366.120    -222.604      10.747
  H     -361.874    -228.467      14.349
  H     -364.855    -220.845       9.675
  H     -361.246    -227.005      13.666
  H     -362.919    -220.695      11.731
  H     -364.718    -219.060      11.619
  H     -365.930    -220.272      12.067
  P     -363.134    -221.847       7.996
  C     -362.968    -219.274       8.346
  O     -363.558    -220.348       7.640
  O     -364.430    -222.713       7.626
  O     -361.903    -222.357       7.321
  H     -364.356    -223.074       6.723
  H     -362.393    -218.663       7.646
  H     -362.305    -219.622       9.146
  H     -363.762    -218.664       8.789
  H     -367.259    -216.445      14.284
  H     -366.079    -216.718      15.543
  H     -366.929    -218.070      14.833

 3  4  5  6  7  8  9  10  11  12  23  26  30  31 0
 6-311+G(2d,p)
 ****
 33  35  36  37  38 0
 6-311+G(2d,p)
 ****
 1  2  13  14  15  16  17  18  19  20  21  22  24  25 0
 3-21G
 ****
 27  28  29  32  34  39  40  41  42  43  44  45  46  47  48  49 0
 3-21G
 ****


