%nproc=1
%NoSave
%Mem=1900MB
#P OB98/GEN NMR

erre ene a

0 1
  C      -68.161     511.996     446.148
  O      -69.253     512.425     446.932
  H      -68.504     511.827     445.121
  H      -67.746     511.062     446.532
  H      -67.385     512.773     446.129
  P      -69.047     512.600     448.514
  C      -69.821     510.212     449.123
  O      -68.735     511.138     449.095
  C      -69.460     508.966     449.920
  O      -69.023     509.373     451.246
  C      -70.632     507.980     450.079
  O      -70.114     506.639     450.012
  C      -71.128     508.284     451.480
  O      -71.817     507.176     452.032
  C      -69.830     508.674     452.213
  N      -70.125     509.499     453.387
  C      -70.104     508.852     454.628
  O      -69.841     507.640     454.706
  N      -70.444     509.556     455.758
  C      -70.836     510.787     455.644
  N      -71.196     511.430     456.797
  C      -70.895     511.511     454.351
  C      -70.529     510.812     453.274
  O      -70.127     513.343     449.236
  O      -67.637     513.353     448.631
  H      -71.165     506.494     452.280
  H      -67.775     514.320     448.635
  H      -71.233     512.537     454.315
  H      -70.555     511.249     452.286
  H      -69.278     507.779     452.532
  H      -71.814     509.144     451.446
  H      -71.410     508.110     449.328
  H      -68.601     508.473     449.437
  H      -71.168     510.881     457.652
  H      -70.047     509.937     448.076
  H      -71.563     512.363     456.828
  H      -70.708     510.699     449.552
  P      -70.440     505.700     448.746
  C      -72.444     504.237     449.367
  O      -72.024     505.425     448.693
  O      -69.586     504.482     448.649
  O      -70.201     506.671     447.484
  H      -69.903     506.135     446.722
  H      -73.506     504.135     449.281
  H      -72.174     504.299     450.401
  H      -71.967     503.388     448.924

 6  7  8  9  10  11  12  13  14  15  16  26  30  31  32  33  35 0
 6-311+G(2d,p)
 ****
 37  38 0
 6-311+G(2d,p)
 ****
 1  2  3  4  5  17  18  19  20  21  22  23  24  25 0
 3-21G
 ****
 27  28  29  34  36  39  40  41  42  43  44  45  46 0
 3-21G
 ****


