%nproc=1
%NoSave
%Mem=1900MB
#P OB98/GEN NMR

erre ene a

0 1
  C       87.950     235.420     132.482
  O       87.328     236.434     131.719
  H       88.109     234.530     131.869
  H       88.920     235.785     132.829
  H       87.335     235.171     133.352
  P       85.878     236.103     131.118
  C       85.920     237.701     129.070
  O       85.401     237.439     130.366
  C       86.122     239.201     128.893
  O       84.851     239.853     128.665
  C       86.733     239.899     130.103
  O       88.141     239.753     130.153
  C       86.338     241.339     129.822
  O       87.202     241.891     128.812
  C       84.915     241.172     129.273
  N       81.607     244.321     131.582
  C       82.520     244.527     130.610
  N       83.366     243.638     130.053
  C       83.204     242.423     130.598
  C       82.320     242.062     131.602
  C       81.485     243.076     132.098
  N       80.562     242.872     133.100
  N       82.468     240.726     131.927
  C       83.403     240.286     131.109
  N       83.886     241.274     130.294
  O       84.936     236.059     132.412
  O       85.783     234.859     130.301
  H       87.115     241.318     128.027
  H       84.122     235.559     132.217
  H       82.581     245.544     130.231
  H       83.761     239.266     131.069
  H       84.676     241.905     128.495
  H       86.418     241.984     130.700
  H       86.260     239.574     131.038
  H       86.740     239.358     127.999
  H       85.209     237.341     128.319
  H       80.149     243.698     133.507
  H       80.571     241.989     133.590
  H       86.869     237.171     128.947
  P       88.760     239.011     131.435
  C       90.570     240.818     131.902
  O       90.290     239.477     131.512
  O       88.854     237.487     130.964
  O       87.967     239.171     132.692
  H       88.816     236.883     131.728
  H       91.628     240.975     131.906
  H       90.180     240.993     132.883
  H       90.112     241.494     131.210

 6  7  8  9  10  11  12  13  14  15  25  28  32  33  34  35 0
 6-311+G(2d,p)
 ****
 36  39  40 0
 6-311+G(2d,p)
 ****
 1  2  3  4  5  16  17  18  19  20  21  22  23  24 0
 3-21G
 ****
 26  27  29  30  31  37  38  41  42  43  44  45  46  47 0
 3-21G
 ****
 48 0
 3-21G
 ****


