%nproc=1
%NoSave
%Mem=1900MB
#P OB98/GEN NMR

erre ene a

0 1
  C        1.137     -45.624     -26.021
  O       -0.087     -45.842     -26.691
  H        1.529     -44.646     -26.314
  H        1.862     -46.392     -26.303
  H        0.986     -45.633     -24.939
  P       -0.853     -47.213     -26.364
  C       -1.885     -48.261     -24.220
  O       -1.057     -47.245     -24.773
  C       -1.362     -48.659     -22.843
  O       -0.015     -49.168     -22.968
  C       -1.273     -47.506     -21.849
  O       -2.534     -47.198     -21.281
  C       -0.273     -48.059     -20.843
  O       -0.908     -48.913     -19.883
  C        0.671     -48.882     -21.730
  N        5.454     -49.452     -23.394
  C        4.421     -50.318     -23.300
  N        3.166     -50.080     -22.861
  C        3.028     -48.792     -22.505
  C        3.990     -47.798     -22.539
  C        5.259     -48.168     -23.014
  N        6.320     -47.297     -23.076
  N        3.480     -46.613     -22.049
  C        2.229     -46.883     -21.734
  N        1.912     -48.185     -21.998
  O        0.273     -48.322     -26.625
  O       -2.083     -47.463     -27.170
  H       -1.265     -49.674     -20.379
  H        0.187     -48.668     -27.533
  H        4.631     -51.336     -23.615
  H        1.525     -46.179     -21.308
  H        0.932     -49.845     -21.275
  H        0.218     -47.258     -20.290
  H       -0.838     -46.623     -22.332
  H       -1.994     -49.465     -22.449
  H       -1.870     -49.137     -24.877
  H       -2.910     -47.884     -24.149
  H        7.209     -47.638     -23.405
  H        6.214     -46.366     -22.695
  P       -2.730     -45.770     -20.584
  C       -2.765     -43.351     -21.536
  O       -2.207     -44.653     -21.610
  O       -1.624     -45.772     -19.428
  O       -4.099     -45.521     -20.047
  H       -2.032     -45.981     -18.567
  H       -2.315     -42.727     -22.280
  H       -2.580     -42.938     -20.566
  H       -3.820     -43.405     -21.706

 6  7  8  9  10  11  12  13  14  15  25  28  32  33  34  35 0
 6-311+G(2d,p)
 ****
 36  37  40 0
 6-311+G(2d,p)
 ****
 1  2  3  4  5  16  17  18  19  20  21  22  23  24 0
 3-21G
 ****
 26  27  29  30  31  38  39 41  42  43  44  45  46  47  48 0
 3-21G
 ****


