%nproc=1
%NoSave
%Mem=1900MB
#P OB98/GEN NMR

erre ene a

0 1
  C     -330.869     358.339     449.783
  O     -329.751     357.492     449.605
  H     -331.510     358.260     448.901
  H     -330.543     359.378     449.886
  H     -331.445     358.041     450.660
  P     -328.735     357.292     450.828
  C     -329.612     355.070     451.795
  O     -329.523     356.479     451.961
  C     -329.024     354.362     453.014
  O     -327.630     354.727     453.173
  C     -329.697     354.740     454.331
  O     -330.954     354.111     454.466
  C     -328.642     354.296     455.328
  O     -328.726     352.887     455.584
  C     -327.326     354.633     454.581
  N     -326.721     355.874     455.074
  C     -326.513     355.954     456.447
  O     -326.798     355.054     457.235
  N     -326.016     357.144     456.906
  C     -325.850     358.277     456.155
  O     -325.643     359.381     456.649
  C     -326.026     358.116     454.707
  C     -326.459     356.941     454.239
  O     -328.035     358.525     451.297
  O     -327.693     356.207     450.273
  H     -326.869     356.657     450.005
  H     -329.632     352.730     455.916
  H     -325.901     357.228     457.904
  H     -325.833     358.970     454.072
  H     -326.635     356.809     453.175
  H     -326.598     353.821     454.700
  H     -328.747     354.815     456.280
  H     -329.805     355.831     454.387
  H     -329.073     353.275     452.844
  H     -329.045     354.784     450.900
  H     -330.663     354.793     451.655
  P     -332.085     354.763     455.402
  C     -333.239     356.389     453.772
  O     -332.359     356.262     454.882
  O     -331.845     354.644     456.868
  O     -333.428     353.997     454.982
  H     -333.871     353.674     455.788
  H     -333.345     357.423     453.517
  H     -334.196     355.985     454.028
  H     -332.838     355.855     452.936

 6  7  8  9  10  11  12  13  14  15  16  27  31  32  33  34  35 0
 6-311+G(2d,p)
 ****
 36  37 0
 6-311+G(2d,p)
 ****
 1  2  3  4  5  17  18  19  20  21  22  23  24  25 0
 3-21G
 ****
 26  28  29  30  38  39  40  41  42  43  44  45 0
 3-21G
 ****


