%nproc=1
%NoSave
%Mem=1900MB
#P OB98/GEN NMR

erre ene a

0 1
  C       94.563    -106.685    -603.588
  O       95.733    -105.957    -603.916
  P       96.413    -104.969    -602.849
  C       95.797    -102.680    -601.904
  O       95.298    -103.912    -602.391
  C       94.685    -101.849    -601.249
  O       93.846    -101.254    -602.286
  C       93.758    -102.656    -600.312
  O       93.372    -101.772    -599.260
  C       92.556    -102.937    -601.205
  O       91.374    -103.250    -600.470
  C       92.481    -101.636    -601.994
  N       89.376     -99.257    -605.292
  C       89.895     -98.870    -604.109
  N       90.698     -99.580    -603.265
  C       90.945    -100.785    -603.771
  C       90.464    -101.343    -604.949
  C       89.646    -100.504    -605.748
  N       89.131    -100.878    -606.972
  N       90.903    -102.650    -605.093
  C       91.631    -102.869    -604.027
  N       91.751    -101.772    -603.229
  O       97.713    -104.368    -603.290
  O       96.614    -105.887    -601.548
  H       91.515    -104.092    -599.992
  H       97.550    -106.125    -601.439
  H       89.637     -97.860    -603.787
  H       92.103    -103.823    -603.773
  H       92.033    -100.819    -601.407
  H       92.773    -103.786    -601.865
  H       94.211    -103.563    -599.920
  H       95.150    -101.021    -600.700
  H       96.195    -102.121    -602.763
  H       88.672    -100.168    -607.502
  H       89.534    -101.682    -607.446
  H       96.613    -102.854    -601.190
  P       93.039    -102.363    -597.793
  C       90.833    -102.802    -596.575
  O       91.503    -102.784    -597.827
  O       93.443    -101.502    -596.651
  O       93.798    -103.774    -597.784
  H       93.893    -104.087    -596.866
  H       91.076    -103.718    -596.045
  H       89.754    -102.738    -596.736
  H       91.144    -101.942    -595.945
  H       94.268    -107.282    -604.426
  H       93.776    -106.003    -603.341
  H       94.761    -107.320    -602.750

 3  4  5  6  7  8  9  10  11  12  22  25  29  30  31  32 0
 6-311+G(2d,p)
 ****
 33  36  37 0
 6-311+G(2d,p)
 ****
 1  2  13  14  15  16  17  18  19  20  21  23  24  26 0
 3-21G
 ****
 27  28  34  35  38  39  40  41  42  43  44  45  46  47  48 0
 3-21G
 ****


