%nproc=1
%NoSave
%Mem=1900MB
#P OB98/GEN NMR

erre ene a

0 1
  C      -67.071       7.833     104.877
  O      -66.237       8.655     104.087
  H      -66.518       6.933     105.156
  H      -67.947       7.538     104.294
  H      -67.386       8.352     105.786
  P      -66.681      10.183     103.894
  C      -68.822      11.379     103.045
  O      -68.108      10.157     103.156
  C      -70.192      11.139     102.410
  O      -70.005      10.883     100.985
  C      -70.960       9.946     103.003
  O      -72.357      10.264     103.033
  C      -70.743       8.859     101.966
  O      -71.753       7.858     102.011
  C      -70.747       9.686     100.684
  N      -71.908       6.683      96.835
  C      -72.718       7.431      97.665
  N      -74.052       7.320      97.488
  N      -72.259       8.222      98.600
  C      -70.905       8.255      98.658
  C      -69.995       7.562      97.900
  C      -70.516       6.676      96.879
  O      -69.851       5.972      96.128
  N      -68.712       7.824      98.311
  C      -68.851       8.657      99.329
  N      -70.164       8.946      99.578
  O      -65.678      10.698     102.757
  O      -66.613      11.028     105.121
  H      -71.728       7.438     102.895
  H      -64.907      11.131     103.168
  H      -72.313       6.077      96.143
  H      -68.044       9.058      99.924
  H      -71.759       9.977     100.374
  H      -69.770       8.379     102.123
  H      -74.479       6.756      96.770
  H      -70.625       9.655     104.003
  H      -74.656       7.894      98.064
  H      -70.783      12.059     102.494
  H      -68.254      12.072     102.415
  H      -68.936      11.822     104.039
  P      -72.992      10.739     104.425
  C      -74.282       9.651     106.406
  O      -73.618       9.462     105.166
  O      -74.285      11.567     103.969
  O      -72.074      11.573     105.256
  H      -74.436      12.309     104.584
  H      -74.639       8.709     106.766
  H      -75.108      10.318     106.270
  H      -73.599      10.069     107.116

 6  7  8  9  10  11  12  13  14  15  26  29  33  34 0
 6-311+G(2d,p)
 ****
 36  38  39  40  41 0
 6-311+G(2d,p)
 ****
 1  2  3  4  5  16  17  18  19  20  21  22  23  24  25 0
 3-21G
 ****
 27  28  30  31  32  35  37  42  43  44  45  46  47 0
 3-21G
 ****
 48  49 0
 3-21G
 ****


