%nproc=1
%NoSave
%Mem=1900MB
#P OB98/GEN NMR

erre ene a

0 1
  C     -332.220    -372.472    -336.120
  O     -333.054    -372.562    -334.963
  P     -334.641    -372.584    -335.178
  C     -334.984    -374.721    -333.742
  O     -335.149    -374.092    -335.001
  C     -335.242    -376.229    -333.857
  O     -334.231    -376.876    -334.659
  C     -335.247    -376.948    -332.516
  O     -336.500    -376.844    -331.869
  C     -335.006    -378.388    -332.961
  O     -336.246    -378.966    -333.429
  C     -334.025    -378.218    -334.130
  N     -330.493    -381.531    -332.678
  C     -331.818    -381.735    -333.025
  N     -332.260    -383.014    -332.989
  N     -332.631    -380.770    -333.377
  C     -332.039    -379.551    -333.383
  C     -330.748    -379.225    -333.055
  C     -329.861    -380.297    -332.654
  O     -328.687    -380.180    -332.319
  N     -330.523    -377.881    -333.173
  C     -331.677    -377.389    -333.593
  N     -332.638    -378.367    -333.723
  O     -334.787    -372.344    -336.757
  O     -335.387    -371.546    -334.395
  H     -336.914    -378.773    -332.753
  H     -335.640    -371.915    -336.951
  H     -329.914    -382.309    -332.406
  H     -331.858    -376.347    -333.817
  H     -334.210    -378.927    -334.939
  H     -334.652    -379.028    -332.151
  H     -331.676    -383.804    -332.776
  H     -334.414    -376.614    -331.881
  H     -333.218    -383.183    -333.277
  H     -336.213    -376.366    -334.343
  H     -335.668    -374.285    -333.007
  H     -333.975    -374.514    -333.366
  P     -336.622    -375.843    -330.616
  C     -337.734    -373.988    -332.053
  O     -336.645    -374.367    -331.240
  O     -335.174    -375.956    -329.937
  O     -337.702    -376.166    -329.652
  H     -335.244    -375.819    -328.970
  H     -337.666    -372.914    -332.247
  H     -338.679    -374.195    -331.544
  H     -337.696    -374.525    -333.006
  H     -331.193    -372.468    -335.820
  H     -332.441    -371.569    -336.649
  H     -332.402    -373.312    -336.757

 3  4  5  6  7  8  9  10  11  12  23  26  30  31 0
 6-311+G(2d,p)
 ****
 33  35  36  37  38 0
 6-311+G(2d,p)
 ****
 1  2  13  14  15  16  17  18  19  20  21  22  24  25 0
 3-21G
 ****
 27  28  29  32  34  39  40  41  42  43  44  45  46  47  48  49 0
 3-21G
 ****


