%nproc=1
%NoSave
%Mem=1900MB
#P OB98/GEN NMR

erre ene a

0 1
  C      136.034     164.755      54.365
  O      135.297     163.548      54.336
  H      136.081     165.115      55.394
  H      135.539     165.509      53.749
  H      137.055     164.592      54.000
  P      135.294     162.718      52.964
  C      136.352     160.586      54.021
  O      135.227     161.163      53.369
  C      135.909     159.396      54.875
  O      135.085     159.899      55.974
  C      135.071     158.358      54.115
  O      135.401     157.055      54.620
  C      133.646     158.697      54.517
  O      132.734     157.614      54.389
  C      133.859     159.143      55.970
  N      132.744     159.945      56.479
  C      132.117     159.507      57.646
  O      132.483     158.545      58.320
  N      131.014     160.230      58.026
  C      130.479     161.299      57.367
  O      129.471     161.893      57.750
  C      131.179     161.708      56.139
  C      132.257     161.024      55.759
  O      136.792     162.897      52.433
  O      134.277     163.139      51.955
  H      136.865     163.691      51.867
  H      132.896     157.198      53.514
  H      130.548     159.925      58.869
  H      130.777     162.546      55.585
  H      132.789     161.284      54.840
  H      134.004     158.271      56.620
  H      133.273     159.531      53.906
  H      135.210     158.378      53.029
  H      136.796     158.936      55.325
  H      136.822     161.336      54.661
  H      137.078     160.262      53.266
  P      135.630     155.884      53.545
  C      137.515     154.897      55.085
  O      136.306     154.677      54.360
  O      136.827     156.493      52.668
  O      134.392     155.539      52.782
  H      137.452     157.020      53.203
  H      137.815     153.988      55.562
  H      137.354     155.652      55.826
  H      138.282     155.216      54.411

 6  7  8  9  10  11  12  13  14  15  16  27  31  32  33  34  35 0
 6-311+G(2d,p)
 ****
 36  37 0
 6-311+G(2d,p)
 ****
 1  2  3  4  5  17  18  19  20  21  22  23  24  25 0
 3-21G
 ****
 26  28  29  30  38  39  40  41  42  43  44  45 0
 3-21G
 ****


