%nproc=1
%NoSave
%Mem=1900MB
#P OB98/GEN NMR

erre ene a

0 1
  C      473.234    -319.659    -351.042
  O      473.689    -320.882    -351.619
  P      475.254    -321.217    -351.636
  C      476.109    -319.859    -353.667
  O      476.058    -319.972    -352.249
  C      477.131    -318.790    -354.071
  O      476.744    -317.477    -353.590
  C      478.507    -319.033    -353.466
  O      479.231    -320.147    -353.957
  C      479.156    -317.666    -353.593
  O      479.711    -317.453    -354.891
  C      477.954    -316.716    -353.357
  N      477.952    -316.133    -352.015
  C      478.805    -315.044    -351.831
  O      479.552    -314.612    -352.708
  N      478.789    -314.482    -350.581
  C      478.059    -314.915    -349.512
  O      478.103    -314.388    -348.404
  C      477.194    -316.085    -349.764
  C      477.187    -316.631    -350.983
  O      475.625    -322.552    -352.190
  O      475.637    -321.142    -350.073
  H      479.009    -317.651    -355.539
  H      476.255    -321.878    -349.885
  H      479.403    -313.690    -350.427
  H      476.600    -316.463    -348.933
  H      476.554    -317.495    -351.182
  H      477.960    -315.905    -354.085
  H      479.977    -317.541    -352.871
  H      478.372    -319.224    -352.390
  H      477.172    -318.745    -355.164
  H      475.118    -319.599    -354.050
  H      476.363    -320.834    -354.091
  P      479.647    -321.391    -353.053
  C      481.769    -320.376    -351.952
  O      480.451    -320.851    -351.772
  O      480.210    -322.594    -353.751
  O      478.230    -321.800    -352.401
  H      478.215    -322.771    -352.277
  H      482.160    -320.068    -350.973
  H      481.769    -319.509    -352.624
  H      482.406    -321.167    -352.350
  H      472.168    -319.604    -351.118
  H      473.672    -318.834    -351.563
  H      473.520    -319.622    -350.012

 3  4  5  6  7  8  9  10  11  12  13  23  28  29  30  31  32 0
 6-311+G(2d,p)
 ****
 33  34 0
 6-311+G(2d,p)
 ****
 1  2  14  15  16  17  18  19  20  21  22  24  25  26  27 0
 3-21G
 ****
 35  36  37  38  39  40  41  42  43  44  45 0
 3-21G
 ****


