%nproc=1
%NoSave
%Mem=1900MB
#P OB98/GEN NMR

erre ene a

0 1
  C     -356.081     301.641       2.613
  O     -357.183     300.896       2.140
  H     -355.230     301.463       1.949
  H     -355.810     301.329       3.623
  H     -356.313     302.711       2.603
  P     -358.533     300.895       3.007
  C     -360.326     301.689       1.324
  O     -359.732     300.585       1.991
  C     -360.943     301.250      -0.014
  O     -359.871     301.040      -0.981
  C     -361.744     299.938       0.072
  O     -362.776     300.002      -0.917
  C     -360.688     298.922      -0.316
  O     -361.266     297.674      -0.625
  C     -359.978     299.673      -1.445
  N     -358.678     299.106      -1.765
  C     -358.647     298.198      -2.831
  O     -359.682     297.902      -3.422
  N     -357.450     297.614      -3.164
  C     -356.391     297.868      -2.457
  N     -355.239     297.248      -2.839
  C     -356.395     298.779      -1.295
  C     -357.559     299.358      -1.009
  O     -358.743     302.087       3.881
  O     -358.433     299.551       3.870
  H     -360.569     296.996      -0.781
  H     -358.207     299.765       4.792
  H     -355.488     298.940      -0.733
  H     -357.658     300.043      -0.172
  H     -360.589     299.685      -2.358
  H     -359.996     298.745       0.518
  H     -362.174     299.765       1.065
  H     -361.567     302.067      -0.403
  H     -355.287     296.628      -3.636
  H     -359.540     302.430       1.145
  H     -354.363     297.358      -2.357
  H     -361.101     302.140       1.954
  P     -364.263     300.514      -0.594
  C     -364.312     301.960      -2.731
  O     -364.973     300.969      -1.957
  O     -364.329     301.535       0.494
  O     -365.071     299.193      -0.176
  H     -365.762     299.436       0.468
  H     -364.888     302.171      -3.608
  H     -363.345     301.603      -3.017
  H     -364.205     302.853      -2.151

 6  7  8  9  10  11  12  13  14  15  16  26  30  31  32  33  35 0
 6-311+G(2d,p)
 ****
 37  38 0
 6-311+G(2d,p)
 ****
 1  2  3  4  5  17  18  19  20  21  22  23  24  25 0
 3-21G
 ****
 27  28  29  34  36  39  40  41  42  43  44  45  46 0
 3-21G
 ****


