%nproc=1
%NoSave
%Mem=1900MB
#P OB98/GEN NMR

erre ene a

0 1
  C     -159.590      10.282    -163.768
  O     -158.238       9.925    -163.557
  H     -159.710      11.347    -163.556
  H     -160.239       9.714    -163.096
  H     -159.873      10.092    -164.806
  P     -157.873       8.375    -163.759
  C     -156.629       8.638    -166.017
  O     -157.774       8.138    -165.343
  C     -156.225       7.702    -167.153
  O     -155.132       8.260    -167.912
  C     -155.781       6.316    -166.696
  O     -156.898       5.469    -166.487
  C     -154.924       5.878    -167.875
  O     -155.745       5.400    -168.962
  C     -154.218       7.186    -168.263
  N     -149.222       6.713    -168.808
  C     -150.250       6.317    -169.640
  N     -149.899       5.675    -170.776
  N     -151.514       6.521    -169.379
  C     -151.722       7.122    -168.183
  C     -150.789       7.558    -167.270
  C     -149.392       7.375    -167.599
  O     -148.435       7.776    -166.943
  N     -151.393       8.138    -166.183
  C     -152.685       8.018    -166.423
  N     -152.935       7.404    -167.623
  O     -159.226       7.617    -163.357
  O     -156.719       7.879    -162.956
  H     -155.230       5.428    -169.787
  H     -158.996       6.795    -162.885
  H     -148.267       6.556    -169.075
  H     -153.472       8.368    -165.770
  H     -154.043       7.250    -169.343
  H     -154.261       5.056    -167.606
  H     -148.994       5.239    -170.886
  H     -155.157       6.379    -165.797
  H     -150.657       5.322    -171.346
  H     -157.082       7.625    -167.835
  H     -155.804       8.719    -165.302
  H     -156.852       9.632    -166.419
  P     -156.639       4.013    -165.871
  C     -156.711       4.838    -163.410
  O     -155.956       4.199    -164.430
  O     -155.449       3.449    -166.781
  O     -157.818       3.102    -165.910
  H     -155.793       2.783    -167.404
  H     -156.128       4.889    -162.514
  H     -157.604       4.279    -163.224
  H     -156.969       5.828    -163.724

 6  7  8  9  10  11  12  13  14  15  26  29  33  34 0
 6-311+G(2d,p)
 ****
 36  38  39  40  41 0
 6-311+G(2d,p)
 ****
 1  2  3  4  5  16  17  18  19  20  21  22  23  24  25 0
 3-21G
 ****
 27  28  30  31  32  35  37  42  43  44  45  46  47 0
 3-21G
 ****
 48  49 0
 3-21G
 ****


