%nproc=1
%NoSave
%Mem=1900MB
#P OB98/GEN NMR

erre ene a

0 1
  C     -389.681     336.866    -297.616
  O     -390.522     337.964    -297.893
  H     -389.174     337.041    -296.665
  H     -388.927     336.768    -298.403
  H     -390.261     335.944    -297.541
  P     -391.491     337.852    -299.167
  C     -390.957     340.227    -300.078
  O     -391.939     339.352    -299.538
  C     -391.510     341.651    -300.174
  O     -392.704     341.631    -301.003
  C     -391.886     342.259    -298.824
  O     -391.537     343.645    -298.832
  C     -393.397     342.118    -298.767
  O     -394.015     343.080    -297.914
  C     -393.773     342.244    -300.253
  N     -395.064     341.618    -300.535
  C     -396.105     342.475    -300.896
  O     -395.922     343.690    -300.951
  N     -397.348     341.938    -301.119
  C     -397.553     340.670    -300.925
  N     -398.814     340.206    -301.134
  C     -396.487     339.742    -300.480
  C     -395.281     340.279    -300.311
  O     -392.828     337.211    -298.563
  O     -390.950     337.066    -300.317
  H     -393.755     343.978    -298.224
  H     -393.282     336.652    -299.224
  H     -396.715     338.706    -300.302
  H     -394.440     339.680    -299.985
  H     -393.818     343.298    -300.549
  H     -393.658     341.119    -298.397
  H     -391.396     341.767    -297.977
  H     -390.769     342.275    -300.695
  H     -399.514     340.875    -301.428
  H     -390.688     339.878    -301.081
  H     -399.094     339.249    -300.969
  H     -390.065     340.202    -299.442
  P     -390.974     344.254    -297.456
  C     -392.009     346.511    -296.684
  O     -391.088     345.855    -297.543
  O     -389.403     343.972    -297.545
  O     -391.583     343.639    -296.239
  H     -389.154     343.273    -296.916
  H     -391.970     347.566    -296.858
  H     -391.753     346.308    -295.665
  H     -392.998     346.153    -296.881

 6  7  8  9  10  11  12  13  14  15  16  26  30  31  32  33  35 0
 6-311+G(2d,p)
 ****
 37  38 0
 6-311+G(2d,p)
 ****
 1  2  3  4  5  17  18  19  20  21  22  23  24  25 0
 3-21G
 ****
 27  28  29  34  36  39  40  41  42  43  44  45  46 0
 3-21G
 ****


