%nproc=1
%NoSave
%Mem=1900MB
#P OB98/GEN NMR

erre ene a

0 1
  C       40.108     641.945     380.226
  O       38.892     642.652     380.430
  P       38.185     642.689     381.880
  C       37.380     645.110     381.446
  O       38.151     644.243     382.275
  C       36.935     646.331     382.249
  O       38.098     647.045     382.741
  C       36.130     647.352     381.456
  O       34.793     646.907     381.262
  C       36.292     648.591     382.332
  O       35.387     648.535     383.443
  C       37.747     648.444     382.829
  N       38.688     649.275     382.073
  C       38.632     650.648     382.312
  O       37.829     651.127     383.117
  N       39.514     651.469     381.647
  C       40.361     650.961     380.799
  N       41.261     651.808     380.219
  C       40.419     649.517     380.483
  C       39.565     648.745     381.156
  O       38.810     641.802     382.902
  O       36.651     642.369     381.581
  H       34.485     648.491     383.071
  H       36.439     641.400     381.594
  H       41.139     649.140     379.771
  H       39.552     647.670     380.996
  H       37.814     648.716     383.892
  H       36.107     649.529     381.792
  H       36.596     647.529     380.474
  H       36.355     645.984     383.121
  H       41.304     652.742     380.602
  H       36.500     644.567     381.096
  H       42.113     651.458     379.802
  H       37.993     645.408     380.580
  P       34.304     646.687     379.746
  C       33.541     644.209     379.628
  O       34.585     645.141     379.417
  O       35.396     647.487     378.886
  O       32.907     647.158     379.474
  H       35.038     648.356     378.615
  H       33.806     643.270     379.140
  H       32.601     644.575     379.202
  H       33.416     644.027     380.702
  H       40.410     642.042     379.204
  H       39.962     640.911     380.458
  H       40.867     642.350     380.862

 3  4  5  6  7  8  9  10  11  12  13  23  27  28  29  30  32 0
 6-311+G(2d,p)
 ****
 34  35 0
 6-311+G(2d,p)
 ****
 1  2  14  15  16  17  18  19  20  21  22  24  25  26 0
 3-21G
 ****
 31  33  36  37  38  39  40  41  42  43  44  45  46 0
 3-21G
 ****


