%nproc=1
%NoSave
%Mem=1900MB
#P OB98/GEN NMR

erre ene a

0 1
  C      -81.754    -205.935    -260.692
  O      -81.934    -204.713    -260.002
  H      -82.571    -206.611    -260.425
  H      -80.806    -206.404    -260.416
  H      -81.783    -205.762    -261.772
  P      -80.731    -203.649    -260.025
  C      -81.674    -203.203    -257.662
  O      -81.022    -202.646    -258.803
  C      -81.295    -202.442    -256.389
  O      -79.901    -202.642    -256.088
  C      -81.467    -200.936    -256.503
  O      -82.810    -200.510    -256.578
  C      -80.574    -200.418    -255.383
  O      -81.226    -200.369    -254.116
  C      -79.452    -201.484    -255.353
  N      -78.191    -200.966    -255.868
  C      -77.463    -200.164    -254.998
  O      -77.844    -199.873    -253.862
  N      -76.289    -199.663    -255.487
  C      -75.811    -199.842    -256.752
  O      -74.769    -199.330    -257.145
  C      -76.636    -200.678    -257.637
  C      -77.772    -201.196    -257.164
  O      -80.501    -202.955    -261.334
  O      -79.471    -204.489    -259.512
  H      -80.590    -199.986    -253.483
  H      -78.625    -204.029    -259.730
  H      -75.745    -199.086    -254.865
  H      -76.289    -200.840    -258.650
  H      -78.399    -201.815    -257.798
  H      -79.279    -201.820    -254.322
  H      -80.211    -199.412    -255.594
  H      -80.999    -200.609    -257.441
  H      -81.885    -202.845    -255.557
  H      -81.348    -204.244    -257.568
  H      -82.758    -203.184    -257.811
  P      -83.360    -199.530    -257.713
  C      -85.317    -198.634    -256.257
  O      -84.931    -199.295    -257.456
  O      -82.893    -199.787    -259.109
  O      -82.728    -198.120    -257.245
  H      -82.519    -197.611    -258.052
  H      -86.383    -198.549    -256.224
  H      -84.881    -197.657    -256.232
  H      -84.977    -199.198    -255.414

 6  7  8  9  10  11  12  13  14  15  16  26  31  32  33  34  35 0
 6-311+G(2d,p)
 ****
 36  37 0
 6-311+G(2d,p)
 ****
 1  2  3  4  5  17  18  19  20  21  22  23  24  25 0
 3-21G
 ****
 27  28  29  30  38  39  40  41  42  43  44  45 0
 3-21G
 ****


