%nproc=1
%NoSave
%Mem=1900MB
#P OB98/GEN NMR

erre ene a

0 1
  C     -589.981     627.531     533.736
  O     -590.899     626.673     534.393
  H     -588.965     627.223     533.997
  H     -590.132     628.562     534.068
  H     -590.103     627.465     532.652
  P     -592.448     626.845     534.000
  C     -592.825     624.643     532.620
  O     -593.015     625.353     533.828
  C     -593.877     623.551     532.457
  O     -593.696     622.902     531.172
  C     -593.813     622.466     533.541
  O     -595.141     622.038     533.836
  C     -593.053     621.340     532.858
  O     -593.320     620.075     533.463
  C     -593.540     621.488     531.407
  N     -592.622     620.878     530.445
  C     -592.689     619.489     530.313
  O     -593.484     618.834     530.991
  N     -591.831     618.867     529.440
  C     -590.938     619.560     528.812
  N     -590.097     618.881     527.980
  C     -590.798     621.021     528.959
  C     -591.669     621.616     529.771
  O     -592.350     627.394     532.502
  O     -593.226     627.720     534.927
  H     -593.086     620.128     534.416
  H     -591.697     626.917     531.956
  H     -590.024     621.559     528.420
  H     -591.647     622.684     529.937
  H     -594.526     621.022     531.287
  H     -591.978     621.518     532.922
  H     -593.322     622.814     534.455
  H     -594.868     624.026     532.439
  H     -590.209     617.870     527.927
  H     -591.825     624.192     532.593
  H     -589.327     619.309     527.489
  H     -592.892     625.362     531.789
  P     -595.692     622.132     535.335
  C     -596.783     624.478     535.399
  O     -596.989     623.070     535.366
  O     -594.672     622.423     536.377
  O     -596.322     620.669     535.572
  H     -596.086     620.390     536.480
  H     -597.730     624.977     535.417
  H     -596.238     624.779     534.529
  H     -596.227     624.737     536.276

 6  7  8  9  10  11  12  13  14  15  16  26  30  31  32  33  35 0
 6-311+G(2d,p)
 ****
 37  38 0
 6-311+G(2d,p)
 ****
 1  2  3  4  5  17  18  19  20  21  22  23  24  25 0
 3-21G
 ****
 27  28  29  34  36  39  40  41  42  43  44  45  46 0
 3-21G
 ****


