%nproc=1
%NoSave
%Mem=1900MB
#P OB98/GEN NMR

erre ene a

0 1
  C      190.262     116.619     -73.503
  O      191.559     117.165     -73.626
  H      190.195     115.730     -74.136
  H      189.505     117.337     -73.829
  H      190.073     116.325     -72.467
  P      191.877     118.571     -72.923
  C      192.129     120.357     -74.762
  O      191.242     119.705     -73.866
  C      191.355     121.197     -75.779
  O      190.736     120.300     -76.742
  C      190.251     122.058     -75.153
  O      190.199     123.303     -75.853
  C      189.003     121.241     -75.421
  O      187.843     122.049     -75.413
  C      189.325     120.578     -76.764
  N      188.529     119.368     -76.961
  C      187.917     119.218     -78.210
  O      188.072     120.075     -79.084
  N      187.093     118.144     -78.422
  C      186.851     117.315     -77.456
  N      185.994     116.292     -77.720
  C      187.453     117.449     -76.110
  C      188.276     118.484     -75.936
  O      193.299     118.807     -72.535
  O      190.911     118.580     -71.645
  H      187.054     121.489     -75.588
  H      191.372     118.197     -70.875
  H      187.216     116.735     -75.336
  H      188.755     118.668     -74.979
  H      189.129     121.268     -77.595
  H      188.887     120.479     -74.640
  H      190.403     122.236     -74.083
  H      192.069     121.818     -76.334
  H      185.588     116.258     -78.646
  H      192.709     119.586     -75.284
  H      185.699     115.612     -77.035
  H      192.822     120.995     -74.199
  P      190.771     124.643     -75.182
  C      188.506     125.576     -74.436
  O      189.780     125.108     -74.004
  O      191.130     125.725     -76.151
  O      192.076     124.146     -74.392
  H      192.730     124.871     -74.359
  H      187.923     125.860     -73.585
  H      188.002     124.797     -74.970
  H      188.636     126.422     -75.078

 6  7  8  9  10  11  12  13  14  15  16  26  30  31  32  33  35 0
 6-311+G(2d,p)
 ****
 37  38 0
 6-311+G(2d,p)
 ****
 1  2  3  4  5  17  18  19  20  21  22  23  24  25 0
 3-21G
 ****
 27  28  29  34  36  39  40  41  42  43  44  45  46 0
 3-21G
 ****


