%nproc=1
%NoSave
%Mem=1900MB
#P OB98/GEN NMR

erre ene a

0 1
  C       13.174    -259.619     440.095
  O       12.876    -258.301     439.694
  H       13.829    -260.071     439.345
  H       12.260    -260.214     440.157
  H       13.690    -259.622     441.060
  P       11.891    -257.406     440.594
  C       11.881    -254.922     441.241
  O       12.292    -255.880     440.276
  C       12.710    -253.642     441.136
  O       13.949    -253.804     441.883
  C       13.085    -253.261     439.694
  O       12.831    -251.875     439.474
  C       14.584    -253.521     439.634
  O       15.244    -252.760     438.630
  C       14.990    -253.212     441.080
  N       16.310    -253.732     441.405
  C       17.394    -252.897     441.111
  O       17.200    -251.788     440.606
  N       18.662    -253.357     441.336
  C       18.844    -254.567     441.775
  N       20.128    -254.970     441.947
  C       17.727    -255.489     442.074
  C       16.500    -255.013     441.873
  O       11.876    -257.766     442.044
  O       10.457    -257.548     439.899
  H       14.957    -251.824     438.712
  H        9.757    -257.337     440.558
  H       17.931    -256.489     442.433
  H       15.623    -255.619     442.064
  H       14.983    -252.126     441.266
  H       14.758    -254.585     439.422
  H       12.549    -253.848     438.948
  H       12.164    -252.830     441.632
  H       20.860    -254.305     441.724
  H       11.985    -255.367     442.241
  H       20.389    -255.890     442.261
  H       10.825    -254.680     441.063
  P       11.503    -251.519     438.643
  C       10.173    -249.356     438.110
  O       11.410    -249.922     438.515
  O       10.322    -251.899     439.652
  O       11.388    -252.270     437.359
  H        9.853    -252.690     439.329
  H       10.264    -248.291     438.070
  H        9.412    -249.623     438.813
  H        9.911    -249.728     437.142

 6  7  8  9  10  11  12  13  14  15  16  26  30  31  32  33  35 0
 6-311+G(2d,p)
 ****
 37  38 0
 6-311+G(2d,p)
 ****
 1  2  3  4  5  17  18  19  20  21  22  23  24  25 0
 3-21G
 ****
 27  28  29  34  36  39  40  41  42  43  44  45  46 0
 3-21G
 ****


