%nproc=1
%NoSave
%Mem=1900MB
#P OB98/GEN NMR

erre ene a

0 1
  C     -454.013     -49.259    -301.966
  O     -453.467     -49.671    -303.205
  H     -454.015     -48.169    -301.932
  H     -453.395     -49.633    -301.147
  H     -455.041     -49.613    -301.852
  P     -453.609     -51.207    -303.639
  C     -455.391     -50.580    -305.390
  O     -455.083     -51.369    -304.258
  C     -456.907     -50.582    -305.666
  O     -457.586     -49.954    -304.544
  C     -457.312     -49.816    -306.937
  O     -458.479     -50.451    -307.467
  C     -457.656     -48.450    -306.376
  O     -458.431     -47.692    -307.280
  C     -458.347     -48.851    -305.063
  N     -458.424     -47.741    -304.111
  C     -459.651     -47.079    -304.029
  O     -460.615     -47.360    -304.737
  N     -459.713     -46.025    -303.146
  C     -458.673     -45.563    -302.396
  O     -458.779     -44.603    -301.641
  C     -457.398     -46.272    -302.552
  C     -457.334     -47.321    -303.388
  O     -453.251     -52.216    -302.594
  O     -452.676     -51.335    -304.937
  H     -459.314     -48.099    -307.390
  H     -452.311     -52.250    -304.999
  H     -460.583     -45.543    -303.073
  H     -456.547     -45.921    -301.972
  H     -456.406     -47.864    -303.521
  H     -459.361     -49.199    -305.257
  H     -456.746     -47.869    -306.164
  H     -456.521     -49.775    -307.688
  H     -457.248     -51.615    -305.710
  H     -454.861     -50.999    -306.252
  H     -455.052     -49.549    -305.236
  P     -458.423     -51.431    -308.737
  C     -458.851     -53.511    -307.289
  O     -457.988     -52.892    -308.236
  O     -457.607     -50.910    -309.880
  O     -459.953     -51.623    -309.170
  H     -460.000     -51.816    -310.126
  H     -458.464     -54.474    -307.029
  H     -459.826     -53.622    -307.715
  H     -458.912     -52.903    -306.411

 6  7  8  9  10  11  12  13  14  15  16  26  31  32  33  34  35 0
 6-311+G(2d,p)
 ****
 36  37 0
 6-311+G(2d,p)
 ****
 1  2  3  4  5  17  18  19  20  21  22  23  24  25 0
 3-21G
 ****
 27  28  29  30  38  39  40  41  42  43  44  45 0
 3-21G
 ****


