%nproc=1
%NoSave
%Mem=1900MB
#P OB98/GEN NMR

erre ene a

0 1
  C      278.069     -18.095      70.749
  O      277.361     -18.073      69.516
  P      276.071     -19.011      69.369
  C      277.612     -20.910      68.501
  O      276.588     -20.533      69.413
  C      277.813     -22.427      68.493
  O      278.139     -22.867      69.839
  C      276.587     -23.230      68.038
  O      277.069     -24.396      67.364
  C      275.944     -23.647      69.352
  O      275.083     -24.774      69.201
  C      277.191     -23.899      70.198
  N      278.091     -26.086      74.731
  C      278.556     -26.361      73.494
  N      278.269     -25.732      72.334
  C      277.406     -24.724      72.540
  C      276.824     -24.346      73.742
  C      277.203     -25.077      74.883
  N      276.739     -24.792      76.146
  N      275.967     -23.280      73.550
  C      276.033     -23.021      72.259
  N      276.908     -23.850      71.617
  O      275.659     -18.801      67.836
  O      274.940     -18.692      70.284
  H      274.371     -24.532      68.579
  H      274.814     -18.315      67.778
  H      279.252     -27.195      73.428
  H      275.471     -22.249      71.749
  H      277.650     -24.869      69.978
  H      275.349     -22.818      69.754
  H      275.900     -22.675      67.394
  H      278.677     -22.658      67.859
  H      278.548     -20.434      68.805
  H      277.159     -25.267      76.931
  H      276.227     -23.928      76.298
  H      277.354     -20.560      67.496
  P      276.624     -24.588      65.835
  C      275.081     -26.582      66.455
  O      275.194     -25.302      65.857
  O      277.614     -25.730      65.301
  O      276.727     -23.346      65.012
  H      277.752     -25.634      64.340
  H      274.095     -26.669      66.919
  H      275.848     -26.738      67.223
  H      275.186     -27.347      65.684
  H      278.899     -17.422      70.696
  H      278.425     -19.086      70.938
  H      277.416     -17.793      71.541

 3  4  5  6  7  8  9  10  11  12  22  25  29  30  31  32 0
 6-311+G(2d,p)
 ****
 33  36  37 0
 6-311+G(2d,p)
 ****
 1  2  13  14  15  16  17  18  19  20  21  23  24  26 0
 3-21G
 ****
 27  28  34  35  38  39  40  41  42  43  44  45  46  47  48 0
 3-21G
 ****


