%nproc=1
%NoSave
%Mem=1900MB
#P OB98/GEN NMR

erre ene a

0 1
  C     -134.233     -46.582    -562.116
  O     -135.102     -47.481    -562.782
  P     -136.643     -47.611    -562.345
  C     -137.970     -48.491    -560.347
  O     -136.677     -48.303    -560.898
  C     -137.897     -49.220    -558.999
  O     -137.451     -50.594    -559.213
  C     -136.932     -48.578    -557.979
  O     -137.504     -48.787    -556.689
  C     -135.678     -49.437    -558.128
  O     -134.816     -49.368    -556.992
  C     -136.305     -50.807    -558.357
  N     -132.016     -53.531    -557.759
  C     -132.635     -52.643    -556.953
  N     -133.772     -51.925    -557.202
  C     -134.254     -52.224    -558.404
  C     -133.719     -53.082    -559.357
  C     -132.539     -53.779    -558.986
  N     -131.913     -54.706    -559.788
  N     -134.482     -53.074    -560.515
  C     -135.447     -52.230    -560.258
  N     -135.407     -51.737    -558.991
  O     -137.538     -48.245    -563.372
  O     -137.088     -46.098    -562.050
  H     -134.383     -48.487    -556.984
  H     -137.656     -45.762    -562.760
  H     -132.164     -52.476    -555.985
  H     -136.227     -51.922    -560.971
  H     -136.679     -51.257    -557.422
  H     -135.107     -49.115    -559.005
  H     -136.738     -47.523    -558.158
  H     -138.908     -49.271    -558.581
  H     -138.544     -49.108    -561.056
  H     -131.165     -55.225    -559.378
  H     -132.425     -55.101    -560.573
  H     -138.477     -47.524    -560.233
  P     -137.212     -47.733    -555.497
  C     -135.114     -46.954    -554.257
  O     -135.629     -47.579    -555.426
  O     -137.887     -48.027    -554.205
  O     -137.684     -46.332    -556.119
  H     -137.805     -45.685    -555.402
  H     -135.217     -45.876    -554.348
  H     -134.065     -47.219    -554.127
  H     -135.666     -47.282    -553.351
  H     -133.257     -46.642    -562.550
  H     -134.179     -46.841    -561.079
  H     -134.607     -45.584    -562.216

 3  4  5  6  7  8  9  10  11  12  22  25  29  30  31  32 0
 6-311+G(2d,p)
 ****
 33  36  37 0
 6-311+G(2d,p)
 ****
 1  2  13  14  15  16  17  18  19  20  21  23  24  26 0
 3-21G
 ****
 27  28  34  35  38  39  40  41  42  43  44  45  46  47  48 0
 3-21G
 ****


