%nproc=1
%NoSave
%Mem=1900MB
#P OB98/GEN NMR

erre ene a

0 1
  C       71.680      39.200     -42.106
  O       71.594      39.301     -40.697
  H       72.568      39.741     -42.442
  H       70.798      39.645     -42.572
  H       71.774      38.152     -42.401
  P       70.331      38.597     -40.002
  C       70.039      37.611     -37.627
  O       70.936      37.897     -38.692
  C       70.359      36.253     -37.009
  O       69.968      35.195     -37.900
  C       71.835      36.033     -36.705
  O       72.178      36.615     -35.458
  C       71.894      34.514     -36.644
  O       71.439      34.064     -35.353
  C       70.891      34.090     -37.730
  N       72.205      30.300     -40.934
  C       71.807      30.286     -39.644
  N       71.528      31.332     -38.837
  C       71.684      32.494     -39.493
  C       72.086      32.664     -40.810
  C       72.348      31.498     -41.547
  N       72.756      31.517     -42.863
  N       72.140      34.003     -41.137
  C       71.718      34.625     -40.056
  N       71.465      33.760     -39.022
  O       69.503      37.732     -40.890
  O       69.571      39.869     -39.393
  H       72.002      34.501     -34.687
  H       70.209      40.500     -39.016
  H       71.702      29.301     -39.198
  H       71.560      35.695     -39.975
  H       70.303      33.218     -37.420
  H       72.907      34.127     -36.776
  H       72.476      36.385     -37.522
  H       69.755      36.148     -36.097
  H       69.005      37.618     -37.991
  H       73.104      30.655     -43.250
  H       72.985      32.411     -43.273
  H       70.148      38.405     -36.880
  P       73.695      36.619     -34.935
  C       75.172      38.315     -33.689
  O       73.908      38.074     -34.295
  O       74.700      36.204     -35.952
  O       73.674      35.663     -33.655
  H       74.585      35.393     -33.426
  H       75.197      39.311     -33.300
  H       75.946      38.198     -34.419
  H       75.324      37.617     -32.892

 6  7  8  9  10  11  12  13  14  15  25  28  32  33  34  35 0
 6-311+G(2d,p)
 ****
 36  39  40 0
 6-311+G(2d,p)
 ****
 1  2  3  4  5  16  17  18  19  20  21  22  23  24 0
 3-21G
 ****
 26  27  29  30  31  37  38  41  42  43  44  45  46  47 0
 3-21G
 ****
 48 0
 3-21G
 ****


