%nproc=1
%NoSave
%Mem=1900MB
#P OB98/GEN NMR

erre ene a

0 1
  C     -416.770     543.318     392.386
  O     -418.121     543.623     392.732
  P     -418.455     544.044     394.243
  C     -420.719     542.813     394.066
  O     -420.052     544.015     394.431
  C     -422.073     543.118     393.428
  O     -421.930     543.703     392.108
  C     -422.935     541.878     393.226
  O     -423.477     541.426     394.451
  C     -423.950     542.378     392.212
  O     -425.011     543.101     392.859
  C     -423.099     543.342     391.347
  N     -422.742     542.787     390.046
  C     -423.785     542.645     389.138
  O     -424.943     542.939     389.457
  N     -423.504     542.150     387.880
  C     -422.288     541.832     387.577
  N     -422.059     541.345     386.324
  C     -421.155     541.952     388.519
  C     -421.453     542.422     389.730
  O     -417.781     545.273     394.735
  O     -417.994     542.753     395.084
  H     -425.585     543.436     392.141
  H     -417.706     543.036     395.971
  H     -420.151     541.674     388.215
  H     -420.686     542.550     390.490
  H     -423.646     544.279     391.178
  H     -424.419     541.554     391.656
  H     -422.325     541.076     392.774
  H     -422.603     543.826     394.068
  H     -422.849     541.262     385.699
  H     -420.853     542.181     394.951
  H     -421.138     541.125     385.982
  H     -420.075     542.247     393.379
  P     -423.680     539.841     394.646
  C     -425.285     539.802     396.691
  O     -423.969     539.575     396.199
  O     -422.199     539.260     394.446
  O     -424.645     539.216     393.696
  H     -422.248     538.381     394.021
  H     -425.398     539.287     397.655
  H     -426.035     539.416     395.992
  H     -425.434     540.878     396.852
  H     -416.717     543.058     391.349
  H     -416.427     542.495     392.978
  H     -416.153     544.172     392.571

 3  4  5  6  7  8  9  10  11  12  13  23  27  28  29  30  32 0
 6-311+G(2d,p)
 ****
 34  35 0
 6-311+G(2d,p)
 ****
 1  2  14  15  16  17  18  19  20  21  22  24  25  26 0
 3-21G
 ****
 31  33  36  37  38  39  40  41  42  43  44  45  46 0
 3-21G
 ****


