%nproc=1
%NoSave
%Mem=1900MB
#P OB98/GEN NMR

erre ene a

0 1
  C      228.256     219.331    -241.077
  O      227.766     218.460    -240.076
  H      227.790     219.069    -242.031
  H      229.341     219.221    -241.175
  H      228.007     220.367    -240.832
  P      228.383     218.647    -238.607
  C      230.110     216.715    -238.477
  O      228.819     217.183    -238.110
  C      230.274     215.243    -238.104
  O      230.332     215.085    -236.670
  C      229.152     214.341    -238.604
  O      229.372     213.954    -239.951
  C      229.254     213.176    -237.631
  O      230.320     212.278    -238.012
  C      229.588     213.886    -236.310
  N      227.452     213.389    -231.760
  C      228.601     212.821    -232.273
  N      229.273     211.970    -231.463
  N      229.055     213.054    -233.477
  C      228.256     213.877    -234.197
  C      227.091     214.501    -233.804
  C      226.635     214.276    -232.447
  O      225.669     214.816    -231.907
  N      226.577     215.275    -234.811
  C      227.408     215.092    -235.822
  N      228.440     214.247    -235.499
  O      227.101     218.976    -237.702
  O      229.420     219.710    -238.478
  H      230.311     212.164    -238.979
  H      227.352     219.639    -237.032
  H      227.170     213.200    -230.813
  H      227.316     215.554    -236.798
  H      230.243     213.278    -235.673
  H      228.340     212.581    -237.617
  H      228.834     211.536    -230.661
  H      228.174     214.826    -238.485
  H      230.073     211.498    -231.867
  H      231.241     214.909    -238.502
  H      230.863     217.311    -237.951
  H      230.249     216.842    -239.558
  P      228.109     213.489    -240.820
  C      229.522     211.611    -241.932
  O      228.659     212.725    -242.122
  O      227.551     214.871    -241.408
  O      227.052     212.768    -240.052
  H      226.736     215.127    -240.930
  H      229.802     211.211    -242.884
  H      229.014     210.859    -241.364
  H      230.399     211.925    -241.405

 6  7  8  9  10  11  12  13  14  15  26  29  33  34 0
 6-311+G(2d,p)
 ****
 36  38  39  40  41 0
 6-311+G(2d,p)
 ****
 1  2  3  4  5  16  17  18  19  20  21  22  23  24  25 0
 3-21G
 ****
 27  28  30  31  32  35  37  42  43  44  45  46  47 0
 3-21G
 ****
 48  49 0
 3-21G
 ****


