%nproc=1
%NoSave
%Mem=1900MB
#P OB98/GEN NMR

erre ene a

0 1
  C     -389.218    -663.351     -98.929
  O     -389.384    -662.310     -99.864
  H     -388.204    -663.303     -98.530
  H     -389.359    -664.318     -99.416
  H     -389.922    -663.249     -98.096
  P     -390.859    -661.962    -100.389
  C     -390.915    -663.455    -102.493
  O     -391.382    -663.270    -101.169
  C     -390.704    -664.943    -102.794
  O     -391.985    -665.542    -103.135
  C     -389.739    -665.213    -103.964
  O     -389.084    -666.454    -103.699
  C     -390.711    -665.362    -105.126
  O     -390.095    -666.009    -106.225
  C     -391.856    -666.117    -104.450
  N     -393.099    -666.053    -105.214
  C     -393.120    -666.721    -106.433
  O     -392.144    -667.323    -106.892
  N     -394.281    -666.641    -107.147
  C     -395.388    -665.932    -106.784
  O     -396.395    -665.872    -107.481
  C     -395.296    -665.204    -105.506
  C     -394.172    -665.308    -104.783
  O     -390.994    -660.689    -101.148
  O     -391.758    -661.964     -99.062
  H     -390.766    -666.269    -106.892
  H     -392.501    -661.339     -99.158
  H     -394.318    -667.133    -108.025
  H     -396.152    -664.619    -105.204
  H     -394.073    -664.783    -103.846
  H     -391.596    -667.183    -104.324
  H     -391.055    -664.382    -105.472
  H     -389.008    -664.418    -104.114
  H     -390.363    -665.438    -101.875
  H     -389.964    -662.918    -102.600
  H     -391.647    -663.034    -103.200
  P     -387.680    -666.533    -102.932
  C     -386.399    -666.946    -105.130
  O     -386.506    -666.143    -103.959
  O     -387.452    -667.816    -102.193
  O     -387.710    -665.293    -101.908
  H     -387.152    -665.492    -101.127
  H     -385.588    -666.593    -105.732
  H     -387.310    -666.886    -105.688
  H     -386.219    -667.963    -104.850

 6  7  8  9  10  11  12  13  14  15  16  26  31  32  33  34  35 0
 6-311+G(2d,p)
 ****
 36  37 0
 6-311+G(2d,p)
 ****
 1  2  3  4  5  17  18  19  20  21  22  23  24  25 0
 3-21G
 ****
 27  28  29  30  38  39  40  41  42  43  44  45 0
 3-21G
 ****


