%nproc=1
%NoSave
%Mem=1900MB
#P OB98/GEN NMR

erre ene a

0 1
  C      286.430     114.501      98.015
  O      286.944     114.307      99.344
  P      287.035     112.815      99.938
  C      289.003     111.562      98.753
  O      288.561     112.325      99.865
  C      290.380     110.958      99.042
  O      290.782     110.077      97.968
  C      291.502     111.975      99.163
  O      291.478     112.647     100.412
  C      292.730     111.096      98.973
  O      293.094     110.446     100.204
  C      292.228     110.065      97.941
  N      292.740     110.318      96.597
  C      293.740     109.464      96.146
  O      294.231     108.573      96.841
  N      294.189     109.691      94.873
  C      293.791     110.706      94.051
  O      294.247     110.871      92.925
  C      292.793     111.625      94.614
  C      292.326     111.396      95.843
  O      286.356     111.951      98.769
  O      286.334     112.590     101.236
  H      293.743     109.753      99.972
  H      285.953     111.147      99.150
  H      294.894     109.065      94.515
  H      292.470     112.459      94.003
  H      291.583     112.066      96.274
  H      292.523     109.053      98.245
  H      293.605     111.663      98.641
  H      291.445     112.693      98.337
  H      290.302     110.356      99.961
  H      289.076     112.214      97.874
  H      288.270     110.776      98.547
  P      291.928     114.189     100.411
  C      289.623     115.405     100.207
  O      290.688     114.990     101.034
  O      291.894     114.516      98.842
  O      293.252     114.410     101.067
  H      291.193     114.024      98.383
  H      289.448     114.695      99.392
  H      289.853     116.387      99.788
  H      288.718     115.480     100.812
  H      286.438     115.544      97.778
  H      285.427     114.131      97.963
  H      287.042     113.972      97.315

 3  4  5  6  7  8  9  10  11  12  13  23  28  29  30  31  32 0
 6-311+G(2d,p)
 ****
 33  34 0
 6-311+G(2d,p)
 ****
 1  2  14  15  16  17  18  19  20  21  22  24  25  26 0
 3-21G
 ****
 27  35  36  37  38  39  40  41  42  43  44  45 0
 3-21G
 ****


