%nproc=1
%NoSave
%Mem=1900MB
#P OB98/GEN NMR

erre ene a

0 1
  C      -60.810    -576.712     308.322
  O      -60.596    -575.570     307.523
  H      -60.347    -576.544     309.306
  H      -60.333    -577.582     307.867
  H      -61.876    -576.899     308.462
  P      -61.282    -575.492     306.078
  C      -59.381    -576.550     304.687
  O      -60.695    -576.707     305.202
  C      -59.178    -577.414     303.439
  O      -57.888    -577.095     302.858
  C      -59.203    -578.920     303.711
  O      -59.853    -579.584     302.627
  C      -57.740    -579.301     303.761
  O      -57.526    -580.670     303.418
  C      -57.130    -578.318     302.751
  N      -52.436    -579.952     301.819
  C      -53.655    -580.377     301.299
  N      -53.610    -581.404     300.415
  N      -54.799    -579.852     301.626
  C      -54.688    -578.815     302.498
  C      -53.552    -578.296     303.076
  C      -52.286    -578.907     302.725
  O      -51.182    -578.586     303.156
  N      -53.853    -577.262     303.929
  C      -55.170    -577.157     303.864
  N      -55.721    -578.082     303.019
  O      -61.205    -574.148     305.414
  O      -62.796    -575.931     306.334
  H      -56.556    -580.820     303.423
  H      -63.397    -575.158     306.314
  H      -51.590    -580.401     301.531
  H      -55.759    -576.435     304.416
  H      -57.210    -578.681     301.716
  H      -57.343    -579.133     304.771
  H      -52.751    -581.843     300.107
  H      -59.727    -579.159     304.649
  H      -54.483    -581.721     300.005
  H      -59.935    -577.137     302.696
  H      -58.671    -576.855     305.465
  H      -59.210    -575.491     304.447
  P      -61.241    -580.348     302.887
  C      -60.273    -582.720     303.210
  O      -60.957    -581.635     303.824
  O      -62.059    -580.635     301.670
  O      -62.008    -579.354     303.880
  H      -62.967    -579.399     303.688
  H      -60.143    -583.508     303.922
  H      -59.316    -582.389     302.865
  H      -60.846    -583.079     302.381

 6  7  8  9  10  11  12  13  14  15  26  29  33  34 0
 6-311+G(2d,p)
 ****
 36  38  39  40  41 0
 6-311+G(2d,p)
 ****
 1  2  3  4  5  16  17  18  19  20  21  22  23  24  25 0
 3-21G
 ****
 27  28  30  31  32  35  37  42  43  44  45  46  47 0
 3-21G
 ****
 48  49 0
 3-21G
 ****


