%nproc=1
%NoSave
%Mem=1900MB
#P OB98/GEN NMR

erre ene a

0 1
  C       90.490      82.593    -138.432
  O       90.522      83.475    -137.304
  P       89.178      83.978    -136.585
  C       88.446      85.959    -138.045
  O       88.168      84.617    -137.663
  C       87.241      86.668    -138.681
  O       86.153      86.803    -137.727
  C       87.528      88.074    -139.222
  O       86.655      88.253    -140.339
  C       87.099      88.956    -138.062
  O       86.858      90.305    -138.434
  C       85.859      88.205    -137.587
  N       84.464      91.928    -134.361
  C       84.553      91.896    -135.707
  N       84.895      90.858    -136.495
  C       85.121      89.754    -135.766
  C       85.060      89.633    -134.387
  C       84.725      90.795    -133.669
  N       84.678      90.848    -132.295
  N       85.388      88.351    -133.991
  C       85.653      87.715    -135.115
  N       85.502      88.517    -136.216
  O       89.410      84.842    -135.387
  O       88.438      82.627    -136.145
  H       86.270      90.307    -139.210
  H       88.123      82.719    -135.225
  H       84.326      92.828    -136.218
  H       85.978      86.685    -135.190
  H       84.991      88.429    -138.220
  H       87.888      88.958    -137.300
  H       88.571      88.226    -139.511
  H       86.868      86.021    -139.485
  H       89.279      85.953    -138.757
  H       84.520      91.748    -131.869
  H       84.992      90.051    -131.762
  H       88.771      86.516    -137.158
  P       87.171      88.875    -141.721
  C       86.832      91.329    -141.086
  O       87.776      90.316    -141.380
  O       86.169      88.863    -142.828
  O       88.467      88.009    -142.094
  H       88.664      88.110    -143.044
  H       86.369      91.679    -142.014
  H       87.344      92.166    -140.605
  H       86.055      90.955    -140.412
  H       91.490      82.387    -138.752
  H       89.948      83.055    -139.231
  H       90.008      81.678    -138.156

 3  4  5  6  7  8  9  10  11  12  22  25  29  30  31  32 0
 6-311+G(2d,p)
 ****
 33  36  37 0
 6-311+G(2d,p)
 ****
 1  2  13  14  15  16  17  18  19  20  21  23  24  26 0
 3-21G
 ****
 27  28  34  35  38  39  40  41  42  43  44  45  46  47  48 0
 3-21G
 ****


