%nproc=1
%NoSave
%Mem=1900MB
#P OB98/GEN NMR

erre ene a

0 1
  C       -8.967     230.843     233.493
  O       -8.554     229.571     233.953
  P       -7.251     228.882     233.328
  C       -8.757     227.130     232.199
  O       -7.704     228.077     232.018
  C       -9.695     227.152     230.993
  O      -10.165     228.494     230.740
  C       -9.049     226.690     229.694
  O       -8.918     225.280     229.662
  C      -10.012     227.268     228.664
  O      -11.157     226.413     228.505
  C      -10.420     228.594     229.321
  N      -10.797     232.589     226.170
  C      -11.616     231.536     226.393
  N      -11.429     230.493     227.223
  C      -10.238     230.589     227.845
  C       -9.284     231.583     227.687
  C       -9.609     232.640     226.821
  N       -8.814     233.747     226.634
  N       -8.174     231.317     228.476
  C       -8.457     230.176     229.079
  N       -9.718     229.738     228.777
  O       -6.419     228.106     234.291
  O       -6.421     230.111     232.724
  H      -11.834     226.922     228.019
  H       -5.550     230.160     233.162
  H      -12.550     231.543     225.837
  H       -7.793     229.647     229.750
  H      -11.495     228.789     229.209
  H       -9.555     227.384     227.676
  H       -8.066     227.171     229.575
  H      -10.571     226.525     231.231
  H       -9.310     227.398     233.105
  H       -9.209     234.509     226.101
  H       -8.093     233.948     227.322
  H       -8.330     226.131     232.330
  P       -7.464     224.613     229.687
  C       -7.550     224.386     227.136
  O       -6.815     224.860     228.246
  O       -7.408     223.204     230.183
  O       -6.616     225.596     230.634
  H       -5.943     225.078     231.116
  H       -7.420     223.304     227.043
  H       -7.173     224.867     226.230
  H       -8.613     224.617     227.241
  H       -9.849     231.144     234.019
  H       -9.177     230.792     232.445
  H       -8.188     231.555     233.667

 3  4  5  6  7  8  9  10  11  12  22  25  29  30  31  32 0
 6-311+G(2d,p)
 ****
 33  36  37 0
 6-311+G(2d,p)
 ****
 1  2  13  14  15  16  17  18  19  20  21  23  24  26 0
 3-21G
 ****
 27  28  34  35  38  39  40  41  42  43  44  45  46  47  48 0
 3-21G
 ****


