%nproc=1
%NoSave
%Mem=1900MB
#P OB98/GEN NMR

erre ene a

0 1
  C     -267.274    -147.366    -211.826
  O     -265.895    -147.547    -212.088
  H     -267.637    -148.224    -211.258
  H     -267.825    -147.311    -212.766
  H     -267.439    -146.459    -211.240
  P     -265.063    -146.343    -212.751
  C     -266.225    -146.968    -214.980
  O     -265.852    -145.925    -214.086
  C     -266.854    -146.394    -216.246
  O     -265.903    -145.491    -216.879
  C     -267.230    -147.467    -217.306
  O     -268.368    -146.963    -218.033
  C     -265.979    -147.471    -218.169
  O     -266.150    -148.163    -219.375
  C     -265.720    -145.958    -218.242
  N     -264.406    -145.564    -218.748
  C     -264.204    -145.648    -220.122
  O     -265.040    -146.014    -220.941
  N     -262.948    -145.281    -220.560
  C     -261.924    -144.846    -219.765
  O     -260.833    -144.501    -220.214
  C     -262.203    -144.795    -218.324
  C     -263.414    -145.143    -217.887
  O     -263.600    -146.572    -212.922
  O     -265.355    -145.108    -211.770
  H     -264.583    -144.968    -211.184
  H     -265.324    -148.094    -219.901
  H     -262.783    -145.324    -221.547
  H     -261.407    -144.464    -217.673
  H     -263.650    -145.104    -216.829
  H     -266.501    -145.473    -218.850
  H     -265.164    -147.979    -217.639
  H     -267.483    -148.431    -216.865
  H     -267.729    -145.790    -215.977
  H     -266.945    -147.620    -214.467
  H     -265.332    -147.564    -215.236
  P     -269.831    -147.609    -217.950
  C     -269.908    -148.614    -220.337
  O     -269.875    -148.877    -218.939
  O     -270.946    -146.634    -218.170
  O     -269.924    -148.252    -216.478
  H     -270.857    -148.300    -216.199
  H     -269.935    -149.539    -220.873
  H     -269.034    -148.065    -220.617
  H     -270.780    -148.040    -220.571

 6  7  8  9  10  11  12  13  14  15  16  27  31  32  33  34  35 0
 6-311+G(2d,p)
 ****
 36  37 0
 6-311+G(2d,p)
 ****
 1  2  3  4  5  17  18  19  20  21  22  23  24  25 0
 3-21G
 ****
 26  28  29  30  38  39  40  41  42  43  44  45 0
 3-21G
 ****


