%nproc=1
%NoSave
%Mem=1900MB
#P OB98/GEN NMR

erre ene a

0 1
  C      261.345    -312.647    -195.940
  O      260.205    -312.452    -196.752
  H      261.896    -311.704    -195.882
  H      261.992    -313.407    -196.378
  H      261.048    -312.943    -194.929
  P      259.245    -313.724    -196.953
  C      256.653    -313.973    -196.833
  O      257.763    -313.142    -197.131
  C      255.342    -313.188    -196.966
  O      255.015    -312.602    -195.669
  C      255.409    -312.030    -197.970
  O      254.090    -311.828    -198.505
  C      255.781    -310.860    -197.071
  O      255.578    -309.631    -197.733
  C      254.891    -311.173    -195.867
  N      253.636    -310.322    -190.984
  C      253.110    -311.139    -191.918
  N      253.506    -311.326    -193.193
  C      254.578    -310.559    -193.474
  C      255.235    -309.688    -192.628
  C      254.717    -309.574    -191.320
  N      255.253    -308.732    -190.371
  N      256.303    -309.077    -193.271
  C      256.287    -309.582    -194.483
  N      255.262    -310.475    -194.661
  O      259.221    -314.396    -195.495
  O      259.671    -314.693    -198.004
  H      254.623    -309.410    -197.781
  H      259.884    -315.109    -195.449
  H      252.248    -311.725    -191.597
  H      256.982    -309.329    -195.283
  H      253.837    -310.956    -196.074
  H      256.843    -310.902    -196.794
  H      256.108    -312.203    -198.792
  H      254.525    -313.883    -197.215
  H      256.764    -314.346    -195.803
  H      256.637    -314.828    -197.521
  H      254.811    -308.699    -189.462
  H      256.048    -308.158    -190.611
  P      253.791    -312.219    -200.040
  C      251.680    -312.988    -201.390
  O      252.203    -312.331    -200.240
  O      254.245    -313.757    -200.083
  O      254.529    -311.421    -201.063
  H      254.526    -313.984    -200.984
  H      250.611    -312.968    -201.357
  H      252.017    -314.003    -201.405
  H      252.019    -312.487    -202.272

 6  7  8  9  10  11  12  13  14  15  25  28  32  33  34  35 0
 6-311+G(2d,p)
 ****
 36  37  40 0
 6-311+G(2d,p)
 ****
 1  2  3  4  5  16  17  18  19  20  21  22  23  24 0
 3-21G
 ****
 26  27  29  30  31  38  39 41  42  43  44  45  46  47  48 0
 3-21G
 ****


