%nproc=1
%NoSave
%Mem=1900MB
#P OB98/GEN NMR

erre ene a

0 1
  C     -123.557    -704.086      82.947
  O     -123.013    -703.185      81.999
  H     -123.338    -705.107      82.629
  H     -124.643    -703.960      82.995
  H     -123.118    -703.917      83.933
  P     -123.150    -701.623      82.325
  C     -121.572    -700.291      83.894
  O     -121.680    -701.112      82.744
  C     -120.105    -699.993      84.211
  O     -119.449    -701.243      84.592
  C     -119.315    -699.395      83.034
  O     -118.357    -698.471      83.572
  C     -118.549    -700.597      82.489
  O     -117.408    -700.219      81.734
  C     -118.246    -701.340      83.793
  N     -114.569    -704.705      84.517
  C     -114.675    -703.384      84.922
  N     -113.643    -702.884      85.633
  N     -115.704    -702.623      84.660
  C     -116.678    -703.263      83.970
  C     -116.699    -704.565      83.504
  C     -115.538    -705.382      83.787
  O     -115.376    -706.551      83.436
  N     -117.858    -704.827      82.821
  C     -118.544    -703.695      82.882
  N     -117.872    -702.721      83.561
  O     -123.962    -701.620      83.707
  O     -123.829    -700.806      81.273
  H     -116.887    -699.582      82.266
  H     -124.918    -701.529      83.532
  H     -113.749    -705.238      84.739
  H     -119.519    -703.530      82.435
  H     -117.423    -700.871      84.350
  H     -119.210    -701.196      81.842
  H     -112.840    -703.421      85.918
  H     -119.930    -698.897      82.285
  H     -113.715    -701.926      85.981
  H     -120.061    -699.341      85.087
  H     -122.028    -700.806      84.750
  H     -122.108    -699.350      83.717
  P     -118.757    -696.918      83.632
  C     -120.874    -695.889      84.738
  O     -119.715    -696.699      84.900
  O     -119.760    -696.763      82.389
  O     -117.594    -695.979      83.518
  H     -119.733    -695.853      82.052
  H     -121.406    -695.839      85.665
  H     -121.505    -696.316      83.987
  H     -120.582    -694.904      84.441

 6  7  8  9  10  11  12  13  14  15  26  29  33  34 0
 6-311+G(2d,p)
 ****
 36  38  39  40  41 0
 6-311+G(2d,p)
 ****
 1  2  3  4  5  16  17  18  19  20  21  22  23  24  25 0
 3-21G
 ****
 27  28  30  31  32  35  37  42  43  44  45  46  47 0
 3-21G
 ****
 48  49 0
 3-21G
 ****


