%nproc=1
%NoSave
%Mem=1900MB
#P OB98/GEN NMR

erre ene a

0 1
  C     -136.293     126.485    -247.907
  O     -135.323     127.339    -247.323
  P     -134.302     126.696    -246.264
  C     -135.154     128.016    -244.155
  O     -135.036     126.781    -244.843
  C     -134.641     127.871    -242.719
  O     -135.398     126.855    -242.028
  C     -133.185     127.438    -242.607
  O     -132.294     128.513    -242.864
  C     -133.145     126.907    -241.179
  O     -133.026     127.993    -240.245
  C     -134.532     126.244    -241.050
  N     -134.493     124.792    -241.211
  C     -134.742     124.040    -240.068
  O     -134.986     124.540    -238.971
  N     -134.684     122.679    -240.225
  C     -134.344     122.016    -241.367
  O     -134.264     120.797    -241.441
  C     -134.059     122.866    -242.533
  C     -134.146     124.191    -242.404
  O     -133.178     127.833    -246.213
  O     -133.818     125.343    -246.664
  H     -133.541     128.709    -246.430
  H     -133.047     127.595    -239.353
  H     -134.884     122.112    -239.414
  H     -133.778     122.376    -243.457
  H     -133.929     124.833    -243.251
  H     -134.969     126.470    -240.070
  H     -132.301     126.230    -241.005
  H     -132.985     126.620    -243.308
  H     -134.800     128.826    -242.201
  H     -136.204     128.317    -244.139
  H     -134.579     128.778    -244.691
  P     -130.782     128.116    -243.248
  C     -129.764     128.467    -240.868
  O     -130.107     127.573    -241.902
  O     -130.129     129.561    -243.466
  O     -130.683     127.208    -244.429
  H     -130.405     130.206    -242.795
  H     -129.662     127.906    -239.937
  H     -130.528     129.237    -240.734
  H     -128.807     128.943    -241.098
  H     -136.899     127.046    -248.587
  H     -136.911     126.069    -247.139
  H     -135.801     125.695    -248.436

 3  4  5  6  7  8  9  10  11  12  13  24  28  29  30  31  32 0
 6-311+G(2d,p)
 ****
 33  34 0
 6-311+G(2d,p)
 ****
 1  2  14  15  16  17  18  19  20  21  22  23  25  26  27 0
 3-21G
 ****
 35  36  37  38  39  40  41  42  43  44  45 0
 3-21G
 ****


