%nproc=1
%NoSave
%Mem=1900MB
#P OB98/GEN NMR

erre ene a

0 1
  C     -898.020    1079.157     618.549
  O     -897.790    1079.488     617.188
  P     -896.700    1078.614     616.397
  C     -895.350    1080.399     615.078
  O     -896.350    1079.415     615.051
  C     -895.180    1081.038     613.716
  O     -894.910    1080.042     612.732
  C     -896.410    1081.790     613.213
  O     -896.580    1083.030     613.870
  C     -896.100    1081.884     611.719
  O     -895.170    1082.955     611.487
  C     -895.430    1080.509     611.452
  N     -897.760    1078.828     607.217
  C     -896.920    1079.854     607.427
  N     -896.340    1080.268     608.598
  C     -896.720    1079.464     609.580
  C     -897.600    1078.379     609.538
  C     -898.130    1078.073     608.294
  N     -898.970    1077.011     608.056
  N     -897.750    1077.828     610.793
  C     -897.000    1078.547     611.586
  N     -896.350    1079.531     610.916
  O     -897.570    1077.363     615.881
  O     -895.500    1078.180     617.211
  H     -895.610    1083.793     611.781
  H     -897.020    1076.541     615.865
  H     -896.650    1080.459     606.534
  H     -896.890    1078.375     612.650
  H     -894.590    1080.611     610.761
  H     -897.000    1082.077     611.105
  H     -897.320    1081.171     613.362
  H     -894.320    1081.749     613.755
  H     -894.380    1079.942     615.382
  H     -899.420    1076.944     607.151
  H     -899.350    1076.523     608.870
  H     -895.600    1081.147     615.856
  P     -897.510    1083.073     615.165
  C     -899.150    1084.901     614.377
  O     -898.040    1084.581     615.213
  O     -896.440    1083.008     616.363
  O     -898.580    1082.015     615.191
  H     -895.730    1083.684     616.207
  H     -899.420    1085.943     614.535
  H     -900.000    1084.258     614.631
  H     -898.880    1084.781     613.327
  H     -898.763    1079.811     618.954
  H     -897.110    1079.266     619.101
  H     -898.360    1078.145     618.617

 3  4  5  6  7  8  9  10  11  12  22  25  29  30  31  32 0
 6-311+G(2d,p)
 ****
 33  36  37 0
 6-311+G(2d,p)
 ****
 1  2  13  14  15  16  17  18  19  20  21  23  24  26 0
 3-21G
 ****
 27  28  34  35  38  39  40  41  42  43  44  45  46  47  48 0
 3-21G
 ****


