%nproc=1
%NoSave
%Mem=1900MB
#P OB98/GEN NMR

erre ene a

0 1
  C     -183.558     -71.123     118.907
  O     -183.282     -71.712     120.163
  P     -182.359     -73.015     120.269
  C     -180.441     -71.853     121.504
  O     -180.831     -72.524     120.313
  C     -178.935     -71.965     121.738
  O     -178.564     -71.114     122.857
  C     -178.437     -73.380     122.055
  O     -177.130     -73.499     121.482
  C     -178.329     -73.366     123.570
  O     -177.462     -74.375     124.075
  C     -177.841     -71.941     123.794
  N     -176.224     -72.118     128.639
  C     -175.795     -72.748     127.527
  N     -176.292     -72.667     126.276
  C     -177.344     -71.831     126.238
  C     -177.914     -71.144     127.296
  C     -177.299     -71.298     128.551
  N     -177.700     -70.639     129.688
  N     -179.021     -70.433     126.866
  C     -179.109     -70.690     125.577
  N     -178.080     -71.475     125.142
  O     -182.641     -74.079     119.261
  O     -182.612     -73.547     121.755
  H     -176.630     -74.347     123.568
  H     -183.173     -74.350     121.730
  H     -174.931     -73.398     127.653
  H     -179.889     -70.331     124.920
  H     -176.770     -71.831     123.586
  H     -179.321     -73.522     124.011
  H     -179.092     -74.177     121.688
  H     -178.423     -71.568     120.851
  H     -180.969     -72.318     122.342
  H     -177.108     -70.717     130.499
  H     -178.316     -69.833     129.598
  H     -180.739     -70.800     121.452
  P     -176.683     -74.872     120.784
  C     -178.035     -74.245     118.701
  O     -177.813     -75.220     119.706
  O     -176.327     -75.978     121.719
  O     -175.435     -74.438     119.874
  H     -174.922     -75.232     119.627
  H     -178.671     -73.453     119.101
  H     -178.539     -74.719     117.853
  H     -177.090     -73.816     118.357
  H     -184.187     -70.269     119.044
  H     -184.054     -71.835     118.281
  H     -182.641     -70.820     118.446

 3  4  5  6  7  8  9  10  11  12  22  25  29  30  31  32 0
 6-311+G(2d,p)
 ****
 33  36  37 0
 6-311+G(2d,p)
 ****
 1  2  13  14  15  16  17  18  19  20  21  23  24  26 0
 3-21G
 ****
 27  28  34  35  38  39  40  41  42  43  44  45  46  47  48 0
 3-21G
 ****


