%nproc=1
%NoSave
%Mem=1900MB
#P OB98/GEN NMR

erre ene a

0 1
  C     -285.112     122.895    -114.098
  O     -283.971     122.419    -114.783
  H     -285.267     123.945    -114.359
  H     -284.955     122.821    -113.019
  H     -286.000     122.323    -114.384
  P     -283.687     120.843    -114.735
  C     -282.911     119.102    -116.506
  O     -282.954     120.468    -116.116
  C     -282.480     118.991    -117.969
  O     -283.434     119.724    -118.791
  C     -281.088     119.573    -118.256
  O     -280.460     118.764    -119.257
  C     -281.399     120.938    -118.841
  O     -280.362     121.467    -119.655
  C     -282.682     120.632    -119.621
  N     -283.457     121.834    -119.922
  C     -283.408     122.315    -121.226
  O     -282.834     121.757    -122.161
  N     -284.065     123.502    -121.443
  C     -284.722     124.241    -120.504
  O     -285.273     125.308    -120.756
  C     -284.730     123.686    -119.144
  C     -284.106     122.528    -118.917
  O     -285.146     120.209    -114.905
  O     -282.989     120.353    -113.511
  H     -285.568     120.085    -114.034
  H     -280.701     122.290    -120.062
  H     -284.039     123.864    -122.382
  H     -285.235     124.253    -118.369
  H     -284.074     122.102    -117.921
  H     -282.446     120.104    -120.551
  H     -281.595     121.654    -118.034
  H     -280.440     119.640    -117.376
  H     -282.536     117.940    -118.273
  H     -283.906     118.661    -116.394
  H     -282.209     118.565    -115.859
  P     -279.440     117.628    -118.759
  C     -278.642     115.423    -119.931
  O     -279.078     116.770    -120.064
  O     -280.419     116.684    -117.920
  O     -278.281     118.179    -117.998
  H     -281.313     116.628    -118.296
  H     -278.448     115.013    -120.900
  H     -279.403     114.848    -119.447
  H     -277.747     115.394    -119.346

 6  7  8  9  10  11  12  13  14  15  16  27  31  32  33  34  35 0
 6-311+G(2d,p)
 ****
 36  37 0
 6-311+G(2d,p)
 ****
 1  2  3  4  5  17  18  19  20  21  22  23  24  25 0
 3-21G
 ****
 26  28  29  30  38  39  40  41  42  43  44  45 0
 3-21G
 ****


