%nproc=1
%NoSave
%Mem=1900MB
#P OB98/GEN NMR

erre ene a

0 1
  C       -6.238      33.151     -34.658
  O       -6.428      34.043     -33.573
  P       -7.519      33.625     -32.469
  C       -9.342      35.130     -33.579
  O       -8.952      33.835     -33.151
  C      -10.811      35.111     -34.005
  O      -11.023      34.118     -35.027
  C      -11.783      34.781     -32.881
  O      -12.050      35.931     -32.101
  C      -12.989      34.273     -33.663
  O      -13.776      35.371     -34.163
  C      -12.324      33.503     -34.813
  N      -14.283      28.923     -35.661
  C      -14.803      30.175     -35.927
  N      -16.000      30.206     -36.551
  N      -14.204      31.293     -35.614
  C      -13.021      31.107     -34.983
  C      -12.408      29.922     -34.651
  C      -13.058      28.694     -35.049
  O      -12.593      27.565     -34.925
  N      -11.225      30.134     -33.994
  C      -11.109      31.446     -33.959
  N      -12.160      32.083     -34.564
  O       -7.419      34.805     -31.397
  O       -7.320      32.273     -31.859
  H      -14.581      35.021     -34.586
  H       -6.865      34.537     -30.638
  H      -14.781      28.097     -35.941
  H      -10.276      31.980     -33.529
  H      -12.883      33.599     -35.751
  H      -13.656      33.667     -33.044
  H      -16.531      29.387     -36.801
  H      -11.384      33.973     -32.255
  H      -16.400      31.116     -36.751
  H      -11.046      36.091     -34.439
  H       -8.723      35.429     -34.430
  H       -9.185      35.840     -32.760
  P      -12.155      35.740     -30.511
  C      -14.732      35.605     -30.779
  O      -13.565      35.046     -30.209
  O      -12.338      37.237     -29.972
  O      -10.970      35.080     -29.889
  H      -11.874      37.336     -29.120
  H      -15.461      34.807     -30.940
  H      -14.524      36.095     -31.734
  H      -15.155      36.336     -30.085
  H       -5.491      33.543     -35.316
  H       -7.159      33.037     -35.191
  H       -5.921      32.199     -34.286

 3  4  5  6  7  8  9  10  11  12  23  26  30  31 0
 6-311+G(2d,p)
 ****
 33  35  36  37  38 0
 6-311+G(2d,p)
 ****
 1  2  13  14  15  16  17  18  19  20  21  22  24  25 0
 3-21G
 ****
 27  28  29  32  34  39  40  41  42  43  44  45  46  47  48  49 0
 3-21G
 ****


