%nproc=1
%NoSave
%Mem=1900MB
#P OB98/GEN NMR

erre ene a

0 1
  C        2.595    -899.162     525.035
  O        3.367    -898.042     525.468
  P        3.231    -896.662     524.662
  C        5.420    -896.772     523.329
  O        4.000    -896.812     523.268
  C        6.014    -896.542     521.935
  O        5.478    -895.362     521.317
  C        7.526    -896.342     521.951
  O        8.200    -897.562     522.157
  C        7.758    -895.712     520.583
  O        7.809    -896.702     519.542
  C        6.483    -894.842     520.406
  N        6.705    -893.412     520.626
  C        7.771    -892.862     519.909
  O        8.474    -893.562     519.171
  N        8.019    -891.512     520.056
  C        7.289    -890.792     520.854
  N        7.579    -889.482     520.958
  C        6.187    -891.362     521.638
  C        5.943    -892.662     521.477
  O        3.550    -895.412     525.446
  O        1.675    -896.662     524.209
  H        8.523    -897.312     519.818
  H        1.363    -895.742     524.151
  H        5.589    -890.722     522.293
  H        5.154    -893.162     522.021
  H        6.065    -894.962     519.399
  H        8.688    -895.142     520.551
  H        7.797    -895.632     522.732
  H        5.766    -897.402     521.310
  H        8.359    -889.122     520.420
  H        5.793    -897.712     523.734
  H        7.035    -888.832     521.511
  H        5.723    -895.982     524.021
  P        8.572    -897.962     523.664
  C       10.756    -896.532     523.569
  O        9.527    -896.812     524.235
  O        9.566    -899.212     523.476
  O        7.410    -898.322     524.531
  H        9.464    -899.832     524.221
  H       11.100    -895.532     523.883
  H       10.598    -896.512     522.484
  H       11.489    -897.272     523.824
  H        2.795    -900.000     525.669
  H        2.857    -899.407     524.027
  H        1.554    -898.918     525.084

 3  4  5  6  7  8  9  10  11  12  13  23  27  28  29  30  32 0
 6-311+G(2d,p)
 ****
 34  35 0
 6-311+G(2d,p)
 ****
 1  2  14  15  16  17  18  19  20  21  22  24  25  26 0
 3-21G
 ****
 31  33  36  37  38  39  40  41  42  43  44  45  46 0
 3-21G
 ****


