%nproc=1
%NoSave
%Mem=1900MB
#P OB98/GEN NMR

erre ene a

0 1
  C      495.565     228.471     252.024
  O      494.692     227.726     251.190
  H      495.925     229.336     251.465
  H      496.422     227.855     252.317
  H      495.032     228.815     252.913
  P      494.135     226.346     251.798
  C      494.888     224.851     249.799
  O      493.812     225.469     250.496
  C      494.362     224.173     248.537
  O      493.455     223.101     248.885
  C      493.565     225.096     247.614
  O      494.393     225.938     246.825
  C      492.830     224.066     246.774
  O      493.727     223.500     245.803
  C      492.433     223.030     247.847
  N      491.110     223.270     248.414
  C      490.015     222.747     247.718
  O      490.183     222.135     246.659
  N      488.746     222.962     248.204
  C      488.580     223.628     249.302
  N      487.305     223.829     249.735
  C      489.700     224.181     250.095
  C      490.923     223.966     249.592
  O      492.667     226.732     252.326
  O      495.002     225.684     252.814
  H      494.470     223.108     246.299
  H      492.191     225.915     252.608
  H      489.521     224.741     250.989
  H      491.796     224.346     250.114
  H      492.456     222.015     247.432
  H      491.987     224.499     246.222
  H      492.829     225.687     248.173
  H      495.218     223.723     248.009
  H      486.551     223.489     249.153
  H      495.348     224.111     250.458
  H      487.073     224.475     250.476
  H      495.634     225.597     249.517
  P      494.236     227.519     247.004
  C      492.730     227.697     244.896
  O      493.915     228.121     245.549
  O      495.731     228.010     247.281
  O      493.289     227.943     248.094
  H      495.749     228.719     247.951
  H      492.655     228.180     243.944
  H      491.881     227.954     245.495
  H      492.760     226.637     244.756

 6  7  8  9  10  11  12  13  14  15  16  26  30  31  32  33  35 0
 6-311+G(2d,p)
 ****
 37  38 0
 6-311+G(2d,p)
 ****
 1  2  3  4  5  17  18  19  20  21  22  23  24  25 0
 3-21G
 ****
 27  28  29  34  36  39  40  41  42  43  44  45  46 0
 3-21G
 ****


