%nproc=1
%NoSave
%Mem=1900MB
#P OB98/GEN NMR

erre ene a

0 1
  C      -82.826      24.137      92.424
  O      -81.710      24.034      93.284
  H      -82.548      23.748      91.440
  H      -83.136      25.179      92.312
  H      -83.657      23.541      92.812
  P      -81.798      24.684      94.747
  C      -83.401      22.905      95.696
  O      -82.102      23.478      95.762
  C      -83.539      21.756      96.698
  O      -82.911      20.575      96.133
  C      -82.887      22.043      98.055
  O      -83.703      21.466      99.078
  C      -81.566      21.308      97.948
  O      -81.043      20.988      99.223
  C      -81.930      20.102      97.077
  N      -80.747      19.555      96.410
  C      -80.127      18.467      97.035
  O      -80.586      18.006      98.083
  N      -78.969      17.966      96.499
  C      -78.439      18.535      95.461
  N      -77.270      18.013      95.006
  C      -79.043      19.703      94.786
  C      -80.187      20.154      95.307
  O      -82.703      25.863      94.888
  O      -80.279      25.066      95.082
  H      -81.653      20.368      99.679
  H      -80.092      25.979      94.791
  H      -78.560      20.145      93.929
  H      -80.695      21.014      94.882
  H      -82.393      19.310      97.679
  H      -80.832      21.942      97.434
  H      -82.748      23.111      98.245
  H      -84.606      21.522      96.815
  H      -76.880      17.229      95.515
  H      -83.552      22.526      94.680
  H      -76.743      18.396      94.233
  H      -84.156      23.671      95.900
  P      -84.505      22.398     100.110
  C      -86.476      22.350      98.474
  O      -86.082      22.238      99.839
  O      -84.027      23.812     100.175
  O      -84.300      21.670     101.524
  H      -84.312      22.339     102.236
  H      -87.537      22.230      98.398
  H      -85.989      21.591      97.899
  H      -86.198      23.314      98.101

 6  7  8  9  10  11  12  13  14  15  16  26  30  31  32  33  35 0
 6-311+G(2d,p)
 ****
 37  38 0
 6-311+G(2d,p)
 ****
 1  2  3  4  5  17  18  19  20  21  22  23  24  25 0
 3-21G
 ****
 27  28  29  34  36  39  40  41  42  43  44  45  46 0
 3-21G
 ****


