%nproc=1
%NoSave
%Mem=1900MB
#P OB98/GEN NMR

erre ene a

0 1
  C     -127.869    -112.976     -33.230
  O     -128.152    -114.332     -32.869
  P     -129.691    -114.760     -32.740
  C     -129.438    -117.278     -33.316
  O     -129.763    -116.310     -32.330
  C     -127.995    -117.779     -33.154
  O     -127.829    -118.476     -31.889
  C     -127.559    -118.751     -34.254
  O     -126.148    -118.604     -34.451
  C     -127.822    -120.104     -33.623
  O     -127.102    -121.145     -34.282
  C     -127.400    -119.821     -32.182
  N     -126.591    -124.108     -29.652
  C     -125.792    -123.448     -30.565
  N     -124.584    -123.996     -30.814
  N     -126.146    -122.349     -31.179
  C     -127.368    -121.900     -30.802
  C     -128.255    -122.465     -29.916
  C     -127.860    -123.694     -29.263
  O     -128.533    -124.329     -28.457
  N     -129.405    -121.724     -29.817
  C     -129.214    -120.717     -30.648
  N     -127.980    -120.759     -31.241
  O     -130.192    -114.755     -34.262
  O     -130.508    -113.835     -31.900
  H     -127.216    -121.962     -33.749
  H     -130.781    -113.994     -34.412
  H     -126.273    -124.957     -29.216
  H     -129.930    -119.936     -30.857
  H     -126.312    -119.870     -32.051
  H     -128.893    -120.340     -33.679
  H     -124.229    -124.811     -30.338
  H     -128.073    -118.624     -35.212
  H     -123.961    -123.510     -31.448
  H     -127.324    -116.913     -33.140
  H     -129.563    -116.854     -34.316
  H     -130.155    -118.102     -33.254
  P     -125.621    -118.615     -35.964
  C     -123.774    -116.792     -35.893
  O     -124.083    -118.172     -35.904
  O     -126.349    -117.353     -36.625
  O     -125.897    -119.877     -36.712
  H     -126.428    -117.473     -37.588
  H     -123.500    -116.496     -34.877
  H     -124.614    -116.180     -36.235
  H     -122.922    -116.618     -36.555
  H     -126.810    -112.834     -33.279
  H     -128.284    -112.317     -32.496
  H     -128.302    -112.763     -34.185

 3  4  5  6  7  8  9  10  11  12  23  26  30  31 0
 6-311+G(2d,p)
 ****
 33  35  36  37  38 0
 6-311+G(2d,p)
 ****
 1  2  13  14  15  16  17  18  19  20  21  22  24  25 0
 3-21G
 ****
 27  28  29  32  34  39  40  41  42  43  44  45  46  47  48  49 0
 3-21G
 ****


