%nproc=1
%NoSave
%Mem=1900MB
#P OB98/GEN NMR

erre ene a

0 1
  C     -140.483      77.810    -137.159
  O     -140.182      79.197    -137.031
  P     -139.499      79.865    -135.752
  C     -136.960      79.810    -136.406
  O     -138.143      80.573    -136.223
  C     -135.678      80.656    -136.326
  O     -134.522      79.803    -136.532
  C     -135.652      81.699    -137.445
  O     -136.334      82.928    -137.288
  C     -134.179      81.847    -137.799
  O     -133.553      82.925    -137.101
  C     -133.576      80.508    -137.362
  N     -129.863      77.828    -139.641
  C     -129.805      78.602    -138.500
  N     -128.596      78.721    -137.912
  N     -130.838      79.218    -137.990
  C     -131.966      79.086    -138.723
  C     -132.142      78.364    -139.881
  C     -131.006      77.637    -140.407
  O     -131.005      76.928    -141.407
  N     -133.424      78.481    -140.357
  C     -134.013      79.293    -139.504
  N     -133.170      79.683    -138.488
  O     -139.425      79.004    -134.537
  O     -140.477      81.103    -135.414
  H     -134.102      83.720    -137.224
  H     -140.457      81.215    -134.442
  H     -129.041      77.356    -139.977
  H     -135.044      79.622    -139.569
  H     -132.679      80.660    -136.750
  H     -134.059      82.058    -138.868
  H     -127.743      78.372    -138.320
  H     -136.117      81.234    -138.324
  H     -128.504      79.456    -137.209
  H     -135.558      81.088    -135.329
  H     -137.041      79.329    -137.384
  H     -136.917      79.007    -135.669
  P     -137.426      83.541    -138.286
  C     -139.521      82.170    -137.745
  O     -138.858      83.413    -137.589
  O     -137.514      82.467    -139.468
  O     -137.101      84.896    -138.822
  H     -137.950      82.855    -140.249
  H     -140.580      82.299    -137.510
  H     -139.090      81.437    -137.059
  H     -139.427      81.805    -138.774
  H     -140.936      77.630    -138.112
  H     -141.159      77.518    -136.382
  H     -139.581      77.240    -137.079

 3  4  5  6  7  8  9  10  11  12  23  26  30  31 0
 6-311+G(2d,p)
 ****
 33  35  36  37  38 0
 6-311+G(2d,p)
 ****
 1  2  13  14  15  16  17  18  19  20  21  22  24  25 0
 3-21G
 ****
 27  28  29  32  34  39  40  41  42  43  44  45  46  47  48  49 0
 3-21G
 ****


