%nproc=1
%NoSave
%Mem=1900MB
#P OB98/GEN NMR

erre ene a

0 1
  C      145.343    -290.141     429.499
  O      145.103    -288.926     428.816
  H      144.460    -290.394     430.089
  H      146.196    -290.026     430.172
  H      145.536    -290.952     428.788
  P      146.171    -288.483     427.707
  C      146.451    -289.396     425.290
  O      145.561    -288.919     426.285
  C      145.691    -290.257     424.279
  O      145.049    -291.353     424.994
  C      144.596    -289.503     423.514
  O      144.548    -290.010     422.177
  C      143.328    -289.904     424.245
  O      142.148    -289.778     423.462
  C      143.655    -291.353     424.618
  N      142.818    -291.856     425.703
  C      142.210    -293.095     425.519
  O      142.394    -293.829     424.551
  N      141.352    -293.485     426.515
  C      141.035    -292.768     427.634
  O      140.239    -293.163     428.479
  C      141.702    -291.464     427.768
  C      142.547    -291.076     426.810
  O      147.372    -289.516     427.928
  O      146.618    -287.060     427.781
  H      148.009    -289.167     428.578
  H      141.411    -290.165     423.979
  H      140.901    -294.379     426.400
  H      141.465    -290.862     428.636
  H      143.042    -290.109     426.869
  H      143.556    -292.005     423.738
  H      143.205    -289.287     425.144
  H      144.732    -288.416     423.491
  H      146.412    -290.706     423.585
  H      147.230    -290.004     425.757
  H      146.923    -288.543     424.786
  P      145.334    -289.183     421.043
  C      147.709    -288.123     421.360
  O      146.881    -289.276     421.445
  O      144.914    -287.684     421.408
  O      144.991    -289.623     419.659
  H      144.817    -287.539     422.366
  H      148.703    -288.374     421.666
  H      147.322    -287.358     422.000
  H      147.725    -287.769     420.350

 6  7  8  9  10  11  12  13  14  15  16  27  31  32  33  34  35 0
 6-311+G(2d,p)
 ****
 36  37 0
 6-311+G(2d,p)
 ****
 1  2  3  4  5  17  18  19  20  21  22  23  24  25 0
 3-21G
 ****
 26  28  29  30  38  39  40  41  42  43  44  45 0
 3-21G
 ****


