%nproc=1
%NoSave
%Mem=1900MB
#P OB98/GEN NMR

erre ene a

0 1
  C      -84.189    -516.688    -510.770
  O      -84.757    -515.416    -511.015
  H      -84.121    -516.838    -509.691
  H      -83.181    -516.737    -511.192
  H      -84.810    -517.479    -511.197
  P      -85.092    -514.994    -512.523
  C      -87.626    -515.104    -512.076
  O      -86.543    -515.588    -512.859
  C      -88.951    -515.519    -512.705
  O      -89.092    -514.916    -514.013
  C      -89.091    -517.022    -512.926
  O      -89.361    -517.684    -511.707
  C      -90.216    -517.051    -513.947
  O      -91.491    -516.872    -513.313
  C      -89.877    -515.821    -514.823
  N      -89.159    -516.182    -516.051
  C      -89.927    -516.737    -517.068
  O      -91.134    -516.929    -516.973
  N      -89.240    -517.107    -518.193
  C      -87.886    -517.063    -518.358
  O      -87.297    -517.606    -519.288
  C      -87.138    -516.401    -517.281
  C      -87.793    -516.011    -516.188
  O      -84.036    -515.300    -513.532
  O      -85.366    -513.419    -512.420
  H      -84.576    -512.934    -512.723
  H      -91.475    -515.983    -512.901
  H      -89.780    -517.555    -518.922
  H      -86.068    -516.286    -517.401
  H      -87.256    -515.545    -515.365
  H      -90.789    -515.290    -515.110
  H      -90.258    -517.995    -514.491
  H      -88.178    -517.416    -513.394
  H      -89.765    -515.142    -512.073
  H      -87.567    -514.010    -512.033
  H      -87.542    -515.502    -511.057
  P      -89.412    -519.284    -511.631
  C      -86.947    -519.675    -511.042
  O      -87.961    -519.848    -512.022
  O      -90.544    -519.914    -512.368
  O      -89.505    -519.592    -510.063
  H      -90.273    -520.182    -509.898
  H      -86.027    -520.084    -511.404
  H      -87.231    -520.179    -510.142
  H      -86.819    -518.632    -510.842

 6  7  8  9  10  11  12  13  14  15  16  27  31  32  33  34  35 0
 6-311+G(2d,p)
 ****
 36  37 0
 6-311+G(2d,p)
 ****
 1  2  3  4  5  17  18  19  20  21  22  23  24  25 0
 3-21G
 ****
 26  28  29  30  38  39  40  41  42  43  44  45 0
 3-21G
 ****


