%nproc=1
%NoSave
%Mem=1900MB
#P OB98/GEN NMR

erre ene a

0 1
  C      113.470      -5.305     -55.353
  O      114.722      -4.866     -54.854
  P      114.732      -3.549     -53.934
  C      114.209      -4.947     -51.808
  O      113.813      -3.879     -52.661
  C      114.725      -4.425     -50.466
  O      113.670      -3.676     -49.817
  C      115.189      -5.521     -49.506
  O      116.325      -5.029     -48.795
  C      114.027      -5.660     -48.541
  O      114.443      -6.196     -47.287
  C      113.506      -4.215     -48.489
  N      112.116      -4.145     -48.051
  C      111.886      -4.170     -46.673
  O      112.827      -4.326     -45.894
  N      110.597      -4.069     -46.214
  C      109.615      -4.056     -47.061
  N      108.356      -3.952     -46.558
  C      109.808      -4.153     -48.521
  C      111.071      -4.173     -48.942
  O      113.844      -2.519     -54.774
  O      116.093      -3.011     -53.634
  H      115.278      -5.746     -47.027
  H      114.150      -1.603     -54.637
  H      108.953      -4.175     -49.181
  H      111.308      -4.219     -49.996
  H      114.117      -3.610     -47.807
  H      113.267      -6.327     -48.967
  H      115.447      -6.453     -50.018
  H      115.545      -3.724     -50.665
  H      108.249      -3.902     -45.553
  H      115.016      -5.505     -52.290
  H      107.530      -3.936     -47.141
  H      113.365      -5.626     -51.660
  P      117.461      -6.084     -48.387
  C      118.547      -5.886     -50.704
  O      117.927      -6.747     -49.770
  O      116.584      -7.265     -47.746
  O      118.536      -5.641     -47.451
  H      117.173      -7.956     -47.393
  H      118.934      -6.487     -51.531
  H      119.378      -5.351     -50.239
  H      117.815      -5.175     -51.098
  H      113.611      -6.185     -55.945
  H      113.037      -4.535     -55.956
  H      112.818      -5.526     -54.534

 3  4  5  6  7  8  9  10  11  12  13  21  23  27  28  29  30  32 0
 6-311+G(2d,p)
 ****
 34  35 0
 6-311+G(2d,p)
 ****
 1  2  14  15  16  17  18  19  20  22  24  25  26 0
 3-21G
 ****
 31  33  36  37  38  39  40  41  42  43  44  45  46 0
 3-21G
 ****


