%nproc=1
%NoSave
%Mem=1900MB
#P OB98/GEN NMR

erre ene a

0 1
  C     -344.767    -528.006     186.209
  O     -345.282    -528.960     187.115
  H     -343.958    -528.468     185.636
  H     -344.362    -527.153     186.756
  H     -345.539    -527.668     185.513
  P     -346.647    -528.635     187.888
  C     -348.075    -530.782     187.858
  O     -347.125    -530.007     188.573
  C     -347.380    -531.869     187.036
  O     -346.406    -532.548     187.887
  C     -348.333    -532.946     186.481
  O     -347.796    -533.395     185.230
  C     -348.208    -534.021     187.547
  O     -348.741    -535.246     187.118
  C     -346.702    -533.958     187.807
  N     -346.289    -534.659     189.017
  C     -346.223    -536.045     188.961
  O     -346.462    -536.704     187.949
  N     -345.868    -536.671     190.127
  C     -345.587    -536.056     191.312
  O     -345.253    -536.666     192.321
  C     -345.705    -534.591     191.318
  C     -346.045    -533.969     190.186
  O     -347.692    -527.929     187.093
  O     -346.170    -527.759     189.143
  H     -346.292    -526.812     188.946
  H     -348.311    -535.535     186.284
  H     -345.812    -537.678     190.104
  H     -345.512    -534.075     192.247
  H     -346.145    -532.888     190.151
  H     -346.145    -534.355     186.951
  H     -348.769    -533.733     188.441
  H     -349.352    -532.580     186.330
  H     -346.811    -531.392     186.226
  H     -348.634    -530.115     187.195
  H     -348.771    -531.244     188.568
  P     -348.450    -533.039     183.811
  C     -346.624    -533.745     182.130
  O     -347.892    -534.053     182.696
  O     -348.303    -531.602     183.427
  O     -349.999    -533.430     183.940
  H     -350.534    -532.790     183.433
  H     -346.366    -534.490     181.406
  H     -345.884    -533.726     182.902
  H     -346.668    -532.787     181.655

 6  7  8  9  10  11  12  13  14  15  16  27  31  32  33  34  35 0
 6-311+G(2d,p)
 ****
 36  37 0
 6-311+G(2d,p)
 ****
 1  2  3  4  5  17  18  19  20  21  22  23  24  25 0
 3-21G
 ****
 26  28  29  30  38  39  40  41  42  43  44  45 0
 3-21G
 ****


