%nproc=1
%NoSave
%Mem=1900MB
#P OB98/GEN NMR

erre ene a

0 1
  C      110.335      46.739    -158.434
  O      110.850      48.011    -158.084
  H      109.536      46.853    -159.171
  H      111.143      46.145    -158.874
  H      109.958      46.221    -157.548
  P      109.873      48.982    -157.261
  C      109.727      50.586    -159.306
  O      110.042      50.436    -157.927
  C      110.969      50.997    -160.097
  O      111.563      52.162    -159.463
  C      112.042      49.906    -160.162
  O      112.640      49.923    -161.461
  C      113.056      50.341    -159.119
  O      114.357      49.831    -159.381
  C      112.952      51.862    -159.216
  N      117.059      53.254    -156.521
  C      116.929      52.715    -157.750
  N      115.793      52.381    -158.397
  C      114.711      52.701    -157.659
  C      114.690      53.253    -156.392
  C      115.937      53.528    -155.804
  N      116.084      54.040    -154.538
  N      113.386      53.402    -155.953
  C      112.641      52.944    -156.940
  N      113.396      52.510    -157.993
  O      110.634      49.120    -155.857
  O      108.470      48.505    -157.096
  H      114.933      50.042    -158.616
  H      110.454      48.332    -155.310
  H      117.858      52.522    -158.282
  H      111.558      52.905    -156.940
  H      113.548      52.274    -160.037
  H      112.744      49.989    -158.129
  H      111.646      48.909    -159.957
  H      110.655      51.309    -161.102
  H      108.954      51.353    -159.411
  H      117.016      54.149    -154.173
  H      115.264      54.192    -153.973
  H      109.341      49.635    -159.692
  P      111.962      48.989    -162.582
  C      113.779      47.171    -162.928
  O      113.127      48.318    -163.461
  O      111.288      50.043    -163.581
  O      110.951      48.038    -162.031
  H      110.361      49.796    -163.755
  H      114.526      46.834    -163.616
  H      113.061      46.393    -162.772
  H      114.240      47.424    -161.996

 6  7  8  9  10  11  12  13  14  15  25  28  32  33  34  35 0
 6-311+G(2d,p)
 ****
 36  39  40 0
 6-311+G(2d,p)
 ****
 1  2  3  4  5  16  17  18  19  20  21  22  23  24 0
 3-21G
 ****
 26  27  29  30  31  37  38  41  42  43  44  45  46  47 0
 3-21G
 ****
 48 0
 3-21G
 ****


