%nproc=1
%NoSave
%Mem=1900MB
#P OB98/GEN NMR

erre ene a

0 1
  C      -12.201     250.673     228.602
  O      -13.390     250.360     229.295
  H      -11.380     250.732     229.320
  H      -12.309     251.643     228.111
  H      -11.967     249.903     227.860
  P      -14.656     249.921     228.416
  C      -15.714     252.145     227.609
  O      -14.864     251.052     227.292
  C      -15.803     253.108     226.424
  O      -16.397     252.410     225.299
  C      -16.655     254.353     226.701
  O      -16.043     255.482     226.071
  C      -17.974     254.037     226.017
  O      -18.694     255.213     225.651
  C      -17.508     253.198     224.834
  N      -20.580     252.390     220.922
  C      -19.541     253.288     221.071
  N      -19.283     254.099     220.021
  N      -18.814     253.383     222.153
  C      -19.160     252.485     223.107
  C      -20.171     251.553     223.085
  C      -20.984     251.479     221.890
  O      -21.933     250.722     221.707
  N      -20.226     250.851     224.263
  C      -19.251     251.359     224.994
  N      -18.573     252.347     224.335
  O      -15.889     250.150     229.412
  O      -14.625     248.521     227.902
  H      -18.876     255.715     226.473
  H      -16.313     249.296     229.612
  H      -21.114     252.369     220.071
  H      -19.003     251.057     226.002
  H      -17.165     253.816     223.994
  H      -18.605     253.448     226.692
  H      -19.768     254.048     219.139
  H      -16.782     254.557     227.766
  H      -18.501     254.739     220.092
  H      -14.787     253.387     226.124
  H      -15.308     252.672     228.476
  H      -16.713     251.769     227.856
  P      -15.184     256.462     227.007
  C      -16.693     258.466     227.656
  O      -16.187     257.191     228.029
  O      -14.747     257.632     226.006
  O      -13.998     255.810     227.636
  H      -13.796     257.561     225.806
  H      -17.343     258.830     228.424
  H      -17.238     258.379     226.739
  H      -15.879     259.148     227.524

 6  7  8  9  10  11  12  13  14  15  26  29  33  34 0
 6-311+G(2d,p)
 ****
 36  38  39  40  41 0
 6-311+G(2d,p)
 ****
 1  2  3  4  5  16  17  18  19  20  21  22  23  24  25 0
 3-21G
 ****
 27  28  30  31  32  35  37  42  43  44  45  46  47 0
 3-21G
 ****
 48  49 0
 3-21G
 ****


