%nproc=1
%NoSave
%Mem=1900MB
#P OB98/GEN NMR

erre ene a

0 1
  C     -108.760       7.883      12.665
  O     -109.740       7.774      11.645
  P     -110.790       6.559      11.630
  C     -110.662       4.106      10.824
  O     -110.068       5.398      10.794
  C     -110.259       3.321       9.579
  O     -110.939       3.859       8.427
  C     -108.773       3.380       9.249
  O     -108.024       2.532      10.106
  C     -108.788       2.978       7.778
  O     -108.905       1.552       7.651
  C     -110.082       3.656       7.278
  N     -109.830       4.913       6.580
  C     -110.087       4.925       5.206
  O     -110.513       3.924       4.630
  N     -109.889       6.092       4.510
  C     -109.450       7.148       5.125
  N     -109.338       8.294       4.399
  C     -109.113       7.162       6.560
  C     -109.330       6.025       7.220
  O     -112.156       6.917      11.149
  O     -110.760       5.984      13.119
  H     -109.692       1.288       8.168
  H     -111.400       6.429      13.728
  H     -108.738       8.063       7.026
  H     -109.128       5.960       8.281
  H     -110.627       2.982       6.606
  H     -107.893       3.291       7.230
  H     -108.399       4.407       9.346
  H     -110.580       2.279       9.711
  H     -109.743       8.285       3.470
  H     -111.751       4.224      10.837
  H     -109.285       9.200       4.849
  H     -110.352       3.587      11.737
  P     -106.756       3.167      10.853
  C     -104.315       3.697      10.150
  O     -105.611       3.305       9.734
  O     -106.251       1.978      11.797
  O     -107.052       4.412      11.622
  H     -106.545       2.125      12.716
  H     -103.619       3.514       9.328
  H     -103.996       3.120      11.021
  H     -104.307       4.765      10.385
  H     -108.164       8.755      12.495
  H     -108.134       7.015      12.653
  H     -109.243       7.961      13.617

 3  4  5  6  7  8  9  10  11  12  13  23  27  28  29  30  32 0
 6-311+G(2d,p)
 ****
 34  35 0
 6-311+G(2d,p)
 ****
 1  2  14  15  16  17  18  19  20  21  22  24  25  26 0
 3-21G
 ****
 31  33  36  37  38  39  40  41  42  43  44  45  46 0
 3-21G
 ****


