%nproc=1
%NoSave
%Mem=1900MB
#P OB98/GEN NMR

erre ene a

0 1
  C      254.756      57.162     -27.880
  O      255.230      57.385     -29.203
  P      255.156      58.875     -29.793
  C      253.216      60.425     -30.549
  O      253.613      59.323     -29.744
  C      251.704      60.640     -30.488
  O      251.322      60.913     -29.111
  C      251.191      61.803     -31.343
  O      249.881      61.444     -31.807
  C      251.066      62.938     -30.339
  O      250.173      63.958     -30.787
  C      250.590      62.162     -29.110
  N      248.804      65.738     -25.916
  C      248.300      65.221     -27.055
  N      248.833      64.270     -27.852
  C      250.015      63.850     -27.364
  C      250.672      64.310     -26.234
  C      250.013      65.301     -25.483
  N      250.519      65.823     -24.314
  N      251.878      63.660     -26.072
  C      251.949      62.819     -27.087
  N      250.838      62.883     -27.878
  O      255.431      58.646     -31.354
  O      256.127      59.842     -29.207
  H      249.814      64.413     -30.002
  H      256.299      59.024     -31.599
  H      247.341      65.618     -27.369
  H      252.777      62.157     -27.291
  H      249.520      61.927     -29.157
  H      252.045      63.393     -30.168
  H      251.839      62.058     -32.186
  H      251.211      59.705     -30.775
  H      253.498      60.222     -31.587
  H      249.930      66.429     -23.766
  H      251.323      65.374     -23.886
  H      253.741      61.329     -30.217
  P      249.478      61.933     -33.284
  C      249.353      64.223     -34.494
  O      249.538      63.534     -33.275
  O      247.911      61.611     -33.360
  O      250.235      61.254     -34.379
  H      247.651      61.445     -34.288
  H      248.851      65.173     -34.290
  H      248.751      63.645     -35.204
  H      250.332      64.428     -34.943
  H      254.870      56.128     -27.630
  H      253.722      57.431     -27.821
  H      255.320      57.759     -27.194

 3  4  5  6  7  8  9  10  11  12  22  25  29  30  31  32 0
 6-311+G(2d,p)
 ****
 33  36  37 0
 6-311+G(2d,p)
 ****
 1  2  13  14  15  16  17  18  19  20  21  23  24  26 0
 3-21G
 ****
 27  28  34  35  38  39  40  41  42  43  44  45  46  47  48 0
 3-21G
 ****


