%nproc=1
%NoSave
%Mem=1900MB
#P OB98/GEN NMR

erre ene a

0 1
  C      -52.661     280.000     -48.573
  O      -52.405     281.035     -47.647
  H      -51.805     279.915     -49.248
  H      -53.552     280.224     -49.168
  H      -52.789     279.046     -48.053
  P      -53.567     281.438     -46.614
  C      -53.601     283.897     -47.428
  O      -53.335     283.006     -46.354
  C      -53.512     285.346     -46.948
  O      -54.561     285.644     -46.003
  C      -52.223     285.700     -46.216
  O      -51.102     285.830     -47.079
  C      -52.628     287.019     -45.586
  O      -52.618     288.056     -46.588
  C      -54.073     286.703     -45.131
  N      -54.152     286.290     -43.731
  C      -54.869     287.129     -42.868
  O      -55.392     288.162     -43.289
  N      -54.940     286.802     -41.535
  C      -54.335     285.742     -41.097
  N      -54.400     285.488     -39.759
  C      -53.591     284.819     -41.974
  C      -53.536     285.150     -43.264
  O      -53.681     280.593     -45.384
  O      -54.899     281.452     -47.502
  H      -51.695     288.152     -46.887
  H      -55.652     281.686     -46.904
  H      -53.100     283.950     -41.558
  H      -52.987     284.534     -43.968
  H      -54.728     287.571     -45.281
  H      -51.960     287.343     -44.783
  H      -52.015     284.978     -45.419
  H      -53.669     285.993     -47.822
  H      -54.886     286.163     -39.186
  H      -54.601     283.675     -47.815
  H      -53.743     284.856     -39.309
  H      -52.870     283.755     -48.228
  P      -49.658     285.408     -46.505
  C      -48.703     287.727     -47.219
  O      -48.580     286.316     -47.275
  O      -49.443     283.949     -47.127
  O      -49.522     285.423     -45.014
  H      -49.733     283.254     -46.507
  H      -47.911     288.177     -47.780
  H      -48.646     288.050     -46.200
  H      -49.645     288.020     -47.634

 6  7  8  9  10  11  12  13  14  15  16  26  30  31  32  33  35 0
 6-311+G(2d,p)
 ****
 37  38 0
 6-311+G(2d,p)
 ****
 1  2  3  4  5  17  18  19  20  21  22  23  24  25 0
 3-21G
 ****
 27  28  29  34  36  39  40  41  42  43  44  45  46 0
 3-21G
 ****


