%nproc=1
%NoSave
%Mem=1900MB
#P OB98/GEN NMR

erre ene a

0 1
  C     -893.600    -118.353    1596.803
  O     -894.410    -118.566    1597.969
  P     -894.480    -120.036    1598.581
  C     -893.380    -120.328    1600.930
  O     -893.200    -120.247    1599.524
  C     -893.160    -118.950    1601.571
  O     -894.090    -117.964    1601.074
  C     -893.330    -118.956    1603.084
  O     -892.150    -119.397    1603.739
  C     -893.550    -117.472    1603.361
  O     -892.280    -116.781    1603.356
  C     -894.400    -117.048    1602.160
  N     -898.270    -114.366    1603.984
  C     -896.950    -114.022    1603.831
  N     -896.600    -112.777    1604.211
  N     -896.040    -114.831    1603.339
  C     -896.530    -116.026    1602.974
  C     -897.820    -116.488    1603.070
  C     -898.820    -115.593    1603.637
  O     -900.000    -115.853    1603.804
  N     -897.930    -117.767    1602.616
  C     -896.710    -118.071    1602.216
  N     -895.820    -117.068    1602.425
  O     -894.150    -120.960    1597.321
  O     -895.800    -120.379    1599.204
  H     -892.460    -115.882    1603.699
  H     -894.590    -121.834    1597.424
  H     -898.930    -113.707    1604.369
  H     -896.440    -119.029    1601.758
  H     -894.150    -116.040    1601.794
  H     -894.000    -117.301    1604.338
  H     -897.260    -112.087    1604.554
  H     -894.210    -119.539    1603.377
  H     -895.640    -112.495    1604.084
  H     -892.140    -118.626    1601.319
  H     -892.690    -121.061    1601.350
  H     -894.390    -120.710    1601.130
  P     -892.160    -120.857    1604.434
  C     -890.020    -121.914    1603.395
  O     -891.440    -121.836    1603.393
  O     -893.710    -121.268    1604.330
  O     -891.670    -120.882    1605.822
  H     -893.950    -121.829    1605.097
  H     -889.710    -122.728    1602.745
  H     -889.660    -122.109    1604.415
  H     -889.590    -120.975    1603.012
  H     -893.654    -117.324    1596.514
  H     -893.957    -118.968    1596.003
  H     -892.584    -118.609    1597.023

 3  4  5  6  7  8  9  10  11  12  23  26  30  31 0
 6-311+G(2d,p)
 ****
 33  35  36  37  38 0
 6-311+G(2d,p)
 ****
 1  2  13  14  15  16  17  18  19  20  21  22  24  25 0
 3-21G
 ****
 27  28  29  32  34  39  40  41  42  43  44  45  46  47  48  49 0
 3-21G
 ****


