%nproc=1
%NoSave
%Mem=1900MB
#P OB98/GEN NMR

erre ene a

0 1
  C       24.697      22.616     -10.331
  O       23.304      22.639     -10.070
  P       22.455      23.869     -10.655
  C       22.005      24.487      -8.169
  O       22.343      24.945      -9.471
  C       22.869      25.185      -7.123
  O       24.238      25.277      -7.569
  C       22.449      26.618      -6.822
  O       21.361      26.683      -5.915
  C       23.712      27.163      -6.176
  O       23.779      26.751      -4.798
  C       24.814      26.476      -6.995
  N       27.375      30.720      -8.003
  C       27.194      30.063      -6.801
  N       27.720      30.654      -5.708
  N       26.557      28.928      -6.684
  C       26.076      28.459      -7.863
  C       26.195      29.019      -9.116
  C       26.894      30.281      -9.229
  O       27.042      30.938     -10.253
  N       25.587      28.247     -10.068
  C       25.100      27.220      -9.398
  N       25.334      27.325      -8.051
  O       20.970      23.279     -10.756
  O       22.942      24.396     -11.963
  H       23.270      27.410      -4.285
  H       20.429      23.837     -11.346
  H       27.870      31.596      -8.040
  H       24.562      26.393      -9.840
  H       25.654      26.165      -6.367
  H       23.756      28.256      -6.183
  H       28.167      31.558      -5.722
  H       22.242      27.175      -7.746
  H       27.547      30.226      -4.805
  H       22.852      24.579      -6.208
  H       22.164      23.408      -8.114
  H       20.945      24.689      -7.980
  P       20.002      27.340      -6.461
  C       20.073      29.063      -4.520
  O       20.007      28.847      -5.915
  O       18.874      26.617      -5.588
  O       19.779      27.171      -7.927
  H       18.027      26.602      -6.069
  H       20.335      30.111      -4.338
  H       20.835      28.430      -4.056
  H       19.100      28.861      -4.065
  H       25.129      21.745      -9.884
  H       25.152      23.492      -9.918
  H       24.861      22.593     -11.388

 3  4  5  6  7  8  9  10  11  12  23  26  30  31 0
 6-311+G(2d,p)
 ****
 33  35  36  37  38 0
 6-311+G(2d,p)
 ****
 1  2  13  14  15  16  17  18  19  20  21  22  24  25 0
 3-21G
 ****
 27  28  29  32  34  39  40  41  42  43  44  45  46  47  48  49 0
 3-21G
 ****


