%nproc=1
%NoSave
%Mem=1900MB
#P OB98/GEN NMR

erre ene a

0 1
  C     -511.536    1172.459     743.853
  O     -511.120    1172.135     742.541
  H     -511.719    1173.532     743.911
  H     -510.746    1172.202     744.570
  H     -512.461    1171.932     744.114
  P     -510.966    1170.598     742.136
  C     -509.015    1169.953     740.566
  O     -510.298    1170.571     740.681
  C     -508.587    1169.879     739.087
  O     -509.528    1169.019     738.376
  C     -508.572    1171.235     738.369
  O     -507.556    1171.164     737.345
  C     -509.966    1171.256     737.759
  O     -510.121    1172.266     736.800
  C     -510.037    1169.793     737.265
  N     -511.350    1169.333     736.878
  C     -511.829    1169.690     735.619
  O     -511.197    1170.376     734.815
  N     -513.083    1169.248     735.297
  C     -513.885    1168.475     736.084
  O     -514.984    1168.076     735.733
  C     -513.343    1168.133     737.402
  C     -512.119    1168.557     737.731
  O     -512.188    1169.750     742.285
  O     -509.776    1170.077     743.085
  H     -510.146    1169.572     743.833
  H     -510.943    1172.099     736.282
  H     -513.437    1169.498     734.392
  H     -513.957    1167.530     738.061
  H     -511.697    1168.315     738.691
  H     -509.337    1169.649     736.430
  H     -510.712    1171.439     738.528
  H     -508.363    1172.081     739.029
  H     -507.608    1169.391     739.039
  H     -509.077    1168.948     740.988
  H     -508.292    1170.540     741.139
  P     -506.098    1171.826     737.508
  C     -505.120    1172.567     735.238
  O     -505.267    1171.517     736.176
  O     -505.398    1171.436     738.773
  O     -506.345    1173.401     737.467
  H     -505.622    1173.862     737.952
  H     -504.547    1172.222     734.403
  H     -504.617    1173.390     735.700
  H     -506.086    1172.883     734.902

 6  7  8  9  10  11  12  13  14  15  16  27  31  32  33  34  35 0
 6-311+G(2d,p)
 ****
 36  37 0
 6-311+G(2d,p)
 ****
 1  2  3  4  5  17  18  19  20  21  22  23  24  25 0
 3-21G
 ****
 26  28  29  30  38  39  40  41  42  43  44  45 0
 3-21G
 ****


