%nproc=1
%NoSave
%Mem=1900MB
#P OB98/GEN NMR

erre ene a

0 1
  C      374.098    -573.869    -284.283
  O      373.147    -572.862    -283.970
  H      373.637    -574.572    -284.986
  H      374.373    -574.417    -283.383
  H      374.985    -573.433    -284.747
  P      373.599    -571.648    -283.030
  C      372.823    -569.968    -284.819
  O      373.899    -570.396    -283.996
  C      372.506    -568.499    -284.556
  O      373.738    -567.732    -284.612
  C      371.529    -567.887    -285.569
  O      370.661    -566.984    -284.883
  C      372.434    -567.116    -286.513
  O      371.757    -566.028    -287.141
  C      373.561    -566.677    -285.571
  N      375.703    -563.822    -289.152
  C      374.435    -563.761    -288.595
  N      373.608    -562.810    -289.084
  N      374.025    -564.561    -287.646
  C      374.960    -565.446    -287.252
  C      376.240    -565.609    -287.717
  C      376.683    -564.737    -288.772
  O      377.790    -564.751    -289.307
  N      376.878    -566.652    -287.070
  C      375.984    -567.108    -286.220
  N      374.800    -566.423    -286.292
  O      374.694    -571.956    -282.062
  O      372.249    -571.220    -282.281
  H      371.010    -566.413    -287.660
  H      372.219    -571.589    -281.383
  H      375.967    -563.189    -289.879
  H      376.128    -567.929    -285.536
  H      373.306    -565.754    -285.036
  H      372.814    -567.783    -287.298
  H      373.869    -562.151    -289.797
  H      370.934    -568.640    -286.097
  H      372.680    -562.728    -288.678
  H      372.117    -568.398    -283.536
  H      371.944    -570.586    -284.588
  H      373.092    -570.113    -285.873
  P      369.318    -567.550    -284.220
  C      370.516    -568.179    -282.031
  O      369.728    -568.647    -283.119
  O      368.254    -567.970    -285.174
  O      368.822    -566.319    -283.318
  H      367.845    -566.341    -283.255
  H      370.726    -568.992    -281.367
  H      369.980    -567.417    -281.504
  H      371.435    -567.776    -282.403

 6  7  8  9  10  11  12  13  14  15  26  29  33  34 0
 6-311+G(2d,p)
 ****
 36  38  39  40  41 0
 6-311+G(2d,p)
 ****
 1  2  3  4  5  16  17  18  19  20  21  22  23  24  25 0
 3-21G
 ****
 27  28  30  31  32  35  37  42  43  44  45  46  47 0
 3-21G
 ****
 48  49 0
 3-21G
 ****


