%nproc=1
%NoSave
%Mem=1900MB
#P OB98/GEN NMR

erre ene a

0 1
  C     -120.551      79.873     280.957
  O     -121.532      80.839     281.276
  H     -120.988      78.877     281.070
  H     -119.696      79.959     281.632
  H     -120.224      80.000     279.922
  P     -121.065      82.373     281.275
  C     -120.943      82.428     278.680
  O     -120.257      82.612     279.911
  C     -121.120      83.780     277.990
  O     -121.881      84.668     278.843
  C     -119.816      84.510     277.708
  O     -119.146      84.011     276.560
  C     -120.315      85.931     277.515
  O     -120.767      86.156     276.173
  C     -121.480      86.014     278.517
  N     -121.118      86.783     279.707
  C     -121.396      88.147     279.654
  O     -121.916      88.691     278.680
  N     -121.019      88.875     280.745
  C     -120.360      88.395     281.839
  O     -120.002      89.116     282.762
  C     -120.074      86.951     281.833
  C     -120.457      86.223     280.782
  O     -119.932      82.411     282.403
  O     -122.153      83.361     281.541
  H     -120.274      82.856     283.199
  H     -121.547      85.578     276.051
  H     -121.215      89.865     280.728
  H     -119.551      86.537     282.685
  H     -120.249      85.158     280.748
  H     -122.350      86.499     278.055
  H     -119.525      86.650     277.715
  H     -119.165      84.477     278.590
  H     -121.687      83.626     277.064
  H     -121.930      81.996     278.866
  H     -120.371      81.740     278.052
  P     -117.551      84.184     276.491
  C     -116.736      81.916     277.548
  O     -116.965      83.308     277.700
  O     -117.400      85.701     276.979
  O     -116.987      83.893     275.143
  H     -118.135      85.970     277.559
  H     -116.346      81.517     278.461
  H     -116.032      81.754     276.759
  H     -117.657      81.427     277.309

 6  7  8  9  10  11  12  13  14  15  16  27  31  32  33  34  35 0
 6-311+G(2d,p)
 ****
 36  37 0
 6-311+G(2d,p)
 ****
 1  2  3  4  5  17  18  19  20  21  22  23  24  25 0
 3-21G
 ****
 26  28  29  30  38  39  40  41  42  43  44  45 0
 3-21G
 ****


