%nproc=1
%NoSave
%Mem=1900MB
#P OB98/GEN NMR

erre ene a

0 1
  C       90.410      59.445     371.814
  O       91.526      58.811     372.453
  P       91.581      58.573     374.039
  C       90.188      56.435     374.427
  O       90.216      57.862     374.498
  C       89.452      55.823     375.623
  O       88.073      56.256     375.650
  C       89.408      54.299     375.626
  O       90.644      53.769     376.078
  C       88.221      54.034     376.546
  O       88.617      54.137     377.922
  C       87.271      55.181     376.173
  N       82.582      53.216     375.612
  C       83.308      53.519     376.710
  N       84.555      54.035     376.780
  C       85.041      54.263     375.546
  C       84.417      54.006     374.332
  C       83.126      53.453     374.393
  N       82.394      53.132     373.273
  N       85.236      54.346     373.277
  C       86.327      54.825     373.845
  N       86.258      54.795     375.207
  O       91.932      59.790     374.831
  O       92.682      57.428     374.242
  H       88.932      53.258     378.202
  H       93.095      57.518     375.122
  H       82.823      53.323     377.659
  H       87.190      55.200     373.309
  H       86.753      55.577     377.053
  H       87.789      53.036     376.402
  H       89.182      53.927     374.620
  H       89.927      56.197     376.537
  H       91.223      56.074     374.410
  H       81.486      52.709     373.400
  H       82.808      53.257     372.362
  H       89.694      56.145     373.494
  P       91.232      52.430     375.419
  C       92.214      53.308     373.220
  O       91.147      52.611     373.831
  O       90.672      51.155     375.950
  O       92.808      52.534     375.697
  H       93.180      51.637     375.774
  H       92.069      54.383     373.346
  H       92.222      53.073     372.150
  H       93.176      53.015     373.653
  H       90.586      59.499     370.760
  H       90.289      60.433     372.206
  H       89.523      58.876     371.999

 3  4  5  6  7  8  9  10  11  12  22  25  29  30  31  32 0
 6-311+G(2d,p)
 ****
 33  36  37 0
 6-311+G(2d,p)
 ****
 1  2  13  14  15  16  17  18  19  20  21  23  24  26 0
 3-21G
 ****
 27  28  34  35  38  39  40  41  42  43  44  45  46  47  48 0
 3-21G
 ****


