%nproc=1
%NoSave
%Mem=1900MB
#P OB98/GEN NMR

erre ene a

0 1
  C      110.216     -37.986     -28.828
  O      109.612     -39.221     -29.222
  P      109.976     -39.765     -30.692
  C      111.559     -41.557     -29.667
  O      111.403     -40.492     -30.593
  C      112.969     -42.140     -29.747
  O      113.941     -41.216     -29.226
  C      113.163     -43.416     -28.940
  O      112.660     -44.553     -29.625
  C      114.682     -43.475     -28.843
  O      115.227     -44.053     -30.043
  C      115.065     -41.990     -28.740
  N      118.078     -39.141     -25.826
  C      118.085     -39.321     -27.196
  N      119.008     -38.622     -27.890
  N      117.260     -40.114     -27.827
  C      116.372     -40.727     -27.009
  C      116.265     -40.631     -25.641
  C      117.206     -39.773     -24.949
  O      117.265     -39.604     -23.737
  N      115.233     -41.395     -25.162
  C      114.696     -41.931     -26.239
  N      115.362     -41.567     -27.385
  O      110.301     -38.421     -31.500
  O      108.885     -40.555     -31.334
  H      114.839     -44.946     -30.132
  H      110.126     -38.552     -32.450
  H      118.742     -38.523     -25.391
  H      113.831     -42.580     -26.246
  H      115.926     -41.746     -29.373
  H      115.029     -44.092     -28.009
  H      119.625     -37.940     -27.476
  H      112.731     -43.316     -27.936
  H      119.004     -38.714     -28.898
  H      113.199     -42.329     -30.805
  H      110.830     -42.342     -29.878
  H      111.345     -41.187     -28.659
  P      111.163     -45.014     -29.277
  C      110.163     -44.120     -31.497
  O      110.207     -44.018     -30.088
  O      110.990     -44.564     -27.751
  O      110.906     -46.471     -29.464
  H      110.353     -45.147     -27.297
  H      110.124     -45.165     -31.818
  H      111.043     -43.635     -31.929
  H      109.265     -43.609     -31.858
  H      109.898     -37.733     -27.838
  H      109.921     -37.212     -29.506
  H      111.281     -38.088     -28.845

 3  4  5  6  7  8  9  10  11  12  23  26  30  31  33  0
 6-311+G(2d,p)
 ****
 35  36  37  38 0
 6-311+G(2d,p)
 ****
 1  2  13  14  15  16  17  18  19  20  21  22  24  25  27  28  29 0
 3-21G
 ****
 32  34  39  40  41  42  43  44  45  46  47  48  49 0
 3-21G
 ****


