%nproc=1
%NoSave
%Mem=1900MB
#P OB98/GEN NMR

erre ene a

0 1
  C      247.617    -600.354    -548.396
  O      248.683    -600.251    -547.470
  P      249.268    -598.785    -547.164
  C      251.659    -599.662    -547.830
  O      250.835    -598.996    -546.888
  C      253.014    -600.013    -547.191
  O      253.727    -598.805    -546.857
  C      252.911    -600.802    -545.895
  O      252.614    -602.168    -546.124
  C      254.287    -600.539    -545.280
  O      255.268    -601.408    -545.881
  C      254.546    -599.077    -545.694
  N      254.286    -598.120    -544.625
  C      255.397    -597.456    -544.115
  O      256.541    -597.644    -544.525
  N      255.150    -596.575    -543.089
  C      253.939    -596.346    -542.506
  O      253.781    -595.578    -541.565
  C      252.809    -597.103    -543.068
  C      253.028    -597.943    -544.083
  O      248.636    -598.516    -545.724
  O      248.922    -597.782    -548.210
  H      248.457    -599.342    -545.235
  H      255.105    -601.385    -546.850
  H      255.935    -596.062    -542.722
  H      251.833    -596.948    -542.614
  H      252.207    -598.514    -544.499
  H      255.584    -598.956    -546.027
  H      254.311    -600.717    -544.205
  H      252.143    -600.359    -545.246
  H      253.604    -600.567    -547.932
  H      251.825    -599.008    -548.684
  H      251.152    -600.575    -548.168
  P      251.427    -602.814    -545.243
  C      252.756    -604.546    -543.812
  O      251.893    -604.310    -544.899
  O      250.289    -602.999    -546.352
  O      251.036    -601.970    -544.080
  H      250.633    -603.337    -547.195
  H      252.663    -605.601    -543.516
  H      252.501    -603.928    -542.948
  H      253.786    -604.350    -544.116
  H      247.333    -601.380    -548.500
  H      247.931    -599.973    -549.345
  H      246.782    -599.786    -548.043

 3  4  5  6  7  8  9  10  11  12  13  24  28  29  30  31  32 0
 6-311+G(2d,p)
 ****
 33  34 0
 6-311+G(2d,p)
 ****
 1  2  14  15  16  17  18  19  20  21  22  23  25  26  27 0
 3-21G
 ****
 35  36  37  38  39  40  41  42  43  44  45 0
 3-21G
 ****


