%nproc=1
%NoSave
%Mem=1900MB
#P OB98/GEN NMR

erre ene a

0 1
  C       13.461     189.318     124.576
  O       14.411     188.485     123.947
  H       13.737     189.431     125.628
  H       12.471     188.857     124.519
  H       13.433     190.307     124.114
  P       14.458     188.439     122.349
  C       14.105     185.883     122.396
  O       13.655     187.129     121.888
  C       13.329     184.717     121.772
  O       11.976     184.703     122.289
  C       13.224     184.898     120.255
  O       13.129     183.651     119.570
  C       11.915     185.655     120.095
  O       11.347     185.523     118.796
  C       11.079     185.028     121.211
  N        6.100     186.117     121.160
  C        6.802     185.203     120.399
  N        6.088     184.503     119.491
  N        8.092     185.008     120.508
  C        8.688     185.830     121.405
  C        8.102     186.791     122.199
  C        6.670     186.970     122.097
  O        5.999     187.779     122.733
  N        9.035     187.439     122.971
  C       10.181     186.878     122.639
  N       10.021     185.886     121.704
  O       15.978     188.046     122.024
  O       14.059     189.704     121.651
  H       11.254     184.569     118.612
  H       16.227     188.358     121.137
  H        5.106     186.218     121.046
  H       11.148     187.147     123.049
  H       10.613     184.095     120.867
  H       12.111     186.718     120.256
  H        5.139     184.745     119.250
  H       14.066     185.463     119.850
  H        6.619     184.058     118.737
  H       13.789     183.763     122.053
  H       13.947     185.899     123.480
  H       15.178     185.769     122.224
  P       14.396     183.183     118.708
  C       13.029     183.666     116.523
  O       14.243     183.799     117.235
  O       14.153     181.615     118.505
  O       15.708     183.469     119.361
  H       14.754     181.105     119.081
  H       13.122     184.138     115.567
  H       12.239     184.131     117.075
  H       12.807     182.628     116.388

 6  7  8  9  10  11  12  13  14  15  26  29  33  34 0
 6-311+G(2d,p)
 ****
 36  38  39  40  41 0
 6-311+G(2d,p)
 ****
 1  2  3  4  5  16  17  18  19  20  21  22  23  24  25 0
 3-21G
 ****
 27  28  30  31  32  35  37  42  43  44  45  46  47 0
 3-21G
 ****
 48  49 0
 3-21G
 ****


