%nproc=1
%NoSave
%Mem=1900MB
#P OB98/GEN NMR

erre ene a

0 1
  C       -5.077     -54.862     -97.954
  O       -5.645     -56.082     -98.435
  P       -4.837     -56.824     -99.606
  C       -5.956     -59.157     -99.482
  O       -5.793     -57.958    -100.224
  C       -7.123     -59.050     -98.493
  O       -8.358     -58.693     -99.181
  C       -7.401     -60.346     -97.723
  O       -7.842     -59.967     -96.412
  C       -8.569     -60.945     -98.483
  O       -9.260     -61.918     -97.704
  C       -9.352     -59.673     -98.803
  N      -14.228     -60.569     -99.755
  C      -13.544     -60.561     -98.555
  N      -14.275     -60.772     -97.440
  N      -12.255     -60.359     -98.459
  C      -11.659     -60.122     -99.654
  C      -12.231     -60.090    -100.905
  C      -13.653     -60.346    -101.000
  O      -14.308     -60.361    -102.035
  N      -11.305     -59.785    -101.874
  C      -10.166     -59.704    -101.205
  N      -10.336     -59.844     -99.855
  O       -3.722     -57.652     -98.810
  O       -4.231     -55.889    -100.602
  H      -10.130     -62.073     -98.131
  H       -2.867     -57.185     -98.846
  H      -15.219     -60.747     -99.774
  H       -9.200     -59.521    -101.646
  H       -9.898     -59.292     -97.930
  H       -8.215     -61.428     -99.402
  H      -15.276     -60.884     -97.439
  H       -6.546     -61.024     -97.654
  H      -13.803     -60.729     -96.545
  H       -6.898     -58.242     -97.786
  H       -5.041     -59.382     -98.928
  H       -6.102     -59.991    -100.177
  P       -6.780     -60.035     -95.215
  C       -6.878     -58.057     -93.551
  O       -7.429     -59.294     -93.955
  O       -5.631     -59.023     -95.694
  O       -6.217     -61.396     -94.958
  H       -4.758     -59.383     -95.453
  H       -7.650     -57.477     -93.043
  H       -6.506     -57.479     -94.403
  H       -6.055     -58.237     -92.854
  H       -5.698     -54.460     -97.180
  H       -5.009     -54.159     -98.758
  H       -4.099     -55.053     -97.564

 3  4  5  6  7  8  9  10  11  12  23  26  30  31 0
 6-311+G(2d,p)
 ****
 33  35  36  37  38 0
 6-311+G(2d,p)
 ****
 1  2  13  14  15  16  17  18  19  20  21  22  24  25 0
 3-21G
 ****
 27  28  29  32  34  39  40  41  42  43  44  45  46  47  48  49 0
 3-21G
 ****


