%nproc=1
%NoSave
%Mem=1900MB
#P OB98/GEN NMR

erre ene a

0 1
  C      -84.600     -15.368     170.587
  O      -83.317     -15.086     170.065
  H      -85.249     -15.685     169.765
  H      -85.028     -14.472     171.043
  H      -84.552     -16.175     171.324
  P      -82.127     -14.747     171.084
  C      -81.765     -12.467     169.929
  O      -82.013     -13.150     171.153
  C      -82.567     -11.168     169.891
  O      -83.970     -11.442     170.099
  C      -82.175     -10.170     170.973
  O      -80.964      -9.517     170.654
  C      -83.400      -9.269     170.990
  O      -83.347      -8.309     169.926
  C      -84.541     -10.287     170.760
  N      -85.219     -10.670     171.998
  C      -86.550     -11.058     171.880
  O      -87.164     -11.055     170.812
  N      -87.172     -11.421     173.046
  C      -86.637     -11.330     174.298
  O      -87.266     -11.582     175.322
  C      -85.236     -10.891     174.365
  C      -84.602     -10.589     173.230
  O      -80.841     -15.464     170.839
  O      -82.740     -15.123     172.517
  H      -82.608      -7.705     170.135
  H      -82.354     -15.964     172.824
  H      -88.139     -11.690     172.983
  H      -84.773     -10.821     175.340
  H      -83.570     -10.258     173.259
  H      -85.288      -9.871     170.073
  H      -83.491      -8.713     171.922
  H      -82.096     -10.678     171.941
  H      -82.454     -10.724     168.892
  H      -82.074     -13.110     169.098
  H      -80.692     -12.266     169.844
  P      -79.646      -9.810     171.512
  C      -79.785      -7.369     172.306
  O      -79.577      -8.727     172.691
  O      -78.390      -9.966     170.723
  O      -79.995     -11.165     172.291
  H      -79.358     -11.859     172.037
  H      -79.717      -6.739     173.168
  H      -80.755      -7.268     171.866
  H      -79.039      -7.082     171.595

 6  7  8  9  10  11  12  13  14  15  16  26  31  32  33  34  35 0
 6-311+G(2d,p)
 ****
 36  37 0
 6-311+G(2d,p)
 ****
 1  2  3  4  5  17  18  19  20  21  22  23  24  25 0
 3-21G
 ****
 27  28  29  30  38  39  40  41  42  43  44  45 0
 3-21G
 ****


