%nproc=1
%NoSave
%Mem=1900MB
#P OB98/GEN NMR

erre ene a

0 1
  C      503.781     528.242     -48.956
  O      503.479     528.613     -47.624
  H      504.776     528.615     -49.206
  H      503.054     528.683     -49.643
  H      503.776     527.152     -49.056
  P      502.038     528.175     -47.071
  C      500.590     529.968     -48.258
  O      501.149     529.512     -47.036
  C      500.316     531.467     -48.191
  O      499.240     531.751     -47.272
  C      501.508     532.306     -47.742
  O      502.384     532.567     -48.821
  C      500.810     533.560     -47.231
  O      500.458     534.448     -48.312
  C      499.552     532.983     -46.568
  N      497.555     533.791     -42.001
  C      497.103     534.162     -43.252
  N      495.974     534.911     -43.282
  N      497.703     533.847     -44.367
  C      498.836     533.128     -44.178
  C      499.378     532.683     -42.989
  C      498.684     533.019     -41.765
  O      498.996     532.666     -40.633
  N      500.525     531.966     -43.208
  C      500.697     532.010     -44.515
  N      499.707     532.717     -45.145
  O      502.311     527.877     -45.520
  O      501.418     527.004     -47.753
  H      501.273     534.774     -48.735
  H      501.696     527.182     -45.216
  H      497.037     534.056     -41.179
  H      501.518     531.545     -45.047
  H      498.688     533.648     -46.671
  H      501.452     534.129     -46.555
  H      495.672     535.451     -42.486
  H      502.033     531.819     -46.910
  H      495.651     535.206     -44.196
  H      499.980     531.782     -49.187
  H      499.649     529.438     -48.440
  H      501.284     529.748     -49.077
  P      503.840     531.888     -48.778
  C      504.871     533.723     -47.251
  O      504.887     533.074     -48.514
  O      504.107     531.495     -50.305
  O      503.953     530.712     -47.874
  H      504.828     530.842     -50.364
  H      505.622     534.485     -47.232
  H      505.068     533.008     -46.480
  H      503.910     534.166     -47.090

 6  7  8  9  10  11  12  13  14  15  26  29  33  34 0
 6-311+G(2d,p)
 ****
 36  38  39  40  41 0
 6-311+G(2d,p)
 ****
 1  2  3  4  5  16  17  18  19  20  21  22  23  24  25 0
 3-21G
 ****
 27  28  30  31  32  35  37  42  43  44  45  46  47 0
 3-21G
 ****
 48  49 0
 3-21G
 ****


