%nproc=1
%NoSave
%Mem=1900MB
#P OB98/GEN NMR

erre ene a

0 1
  C        6.289     105.962      -4.014
  O        5.713     104.799      -3.455
  P        6.512     103.889      -2.405
  C        4.359     103.922      -0.997
  O        5.389     103.118      -1.552
  C        3.149     103.078      -0.593
  O        2.476     102.587      -1.786
  C        3.483     101.861       0.283
  O        2.372     101.687       1.170
  C        3.535     100.734      -0.731
  O        3.397      99.450      -0.134
  C        2.403     101.150      -1.681
  N        2.516     100.497      -2.982
  C        1.639      99.434      -3.230
  O        0.878      99.041      -2.346
  N        1.685      98.808      -4.451
  C        2.596      99.149      -5.309
  N        2.590      98.498      -6.505
  C        3.620     100.177      -5.039
  C        3.512     100.816      -3.875
  O        7.535     104.605      -1.590
  O        7.121     102.717      -3.306
  H        2.462      99.341       0.151
  H        7.914     103.040      -3.806
  H        4.393     100.385      -5.761
  H        4.215     101.585      -3.588
  H        1.426     100.899      -1.251
  H        4.498     100.754      -1.255
  H        4.413     101.967       0.844
  H        2.442     103.732      -0.068
  H        1.861      97.811      -6.656
  H        4.045     104.644      -1.758
  H        3.201      98.742      -7.269
  H        4.744     104.485      -0.141
  P        2.588     101.273       2.702
  C        1.079     102.888       3.997
  O        1.214     101.582       3.467
  O        3.807     101.850       3.348
  O        2.642      99.672       2.682
  H        3.018      99.347       3.520
  H        0.025     103.067       4.235
  H        1.412     103.640       3.275
  H        1.668     102.977       4.911
  H        5.592     106.418      -4.686
  H        7.178     105.698      -4.548
  H        6.533     106.650      -3.232

 3  4  5  6  7  8  9  10  11  12  13  23  27  28  29  30  32 0
 6-311+G(2d,p)
 ****
 34  35 0
 6-311+G(2d,p)
 ****
 1  2  14  15  16  17  18  19  20  21  22  24  25  26 0
 3-21G
 ****
 31  33  36  37  38  39  40  41  42  43  44  45  46 0
 3-21G
 ****


