%nproc=1
%NoSave
%Mem=1900MB
#P OB98/GEN NMR

erre ene a

0 1
  C     -197.031       9.443     -63.020
  O     -196.188       8.667     -62.191
  H     -198.047       9.421     -62.613
  H     -197.051       9.026     -64.031
  H     -196.686      10.481     -63.054
  P     -194.624       8.657     -62.546
  C     -193.803      11.099     -62.140
  O     -193.942       9.783     -61.622
  C     -193.199      12.014     -61.069
  O     -193.941      11.827     -59.832
  C     -191.724      11.715     -60.777
  O     -191.039      12.943     -60.510
  C     -191.786      10.875     -59.507
  O     -190.587      10.905     -58.745
  C     -192.982      11.520     -58.794
  N     -193.579      10.636     -57.794
  C     -193.269      10.879     -56.456
  O     -192.596      11.836     -56.054
  N     -193.775       9.980     -55.555
  C     -194.519       8.866     -55.854
  O     -194.922       8.085     -55.002
  C     -194.799       8.657     -57.284
  C     -194.323       9.533     -58.171
  O     -194.574       9.308     -64.010
  O     -193.955       7.326     -62.487
  H     -194.644       8.617     -64.695
  H     -190.710      10.322     -57.966
  H     -193.565      10.146     -54.584
  H     -195.378       7.781     -57.556
  H     -194.506       9.395     -59.232
  H     -192.684      12.466     -58.326
  H     -192.001       9.831     -59.759
  H     -191.228      11.183     -61.589
  H     -193.333      13.063     -61.379
  H     -194.791      11.480     -62.426
  H     -193.159      11.075     -63.024
  P     -189.997      13.462     -61.618
  C     -191.655      15.074     -62.842
  O     -190.496      14.934     -62.036
  O     -190.375      12.540     -62.868
  O     -188.574      13.370     -61.170
  H     -191.332      12.365     -62.942
  H     -191.841      16.112     -63.022
  H     -192.495      14.644     -62.337
  H     -191.504      14.572     -63.775

 6  7  8  9  10  11  12  13  14  15  16  27  31  32  33  34  35 0
 6-311+G(2d,p)
 ****
 36  37 0
 6-311+G(2d,p)
 ****
 1  2  3  4  5  17  18  19  20  21  22  23  24  25 0
 3-21G
 ****
 26  28  29  30  38  39  40  41  42  43  44  45 0
 3-21G
 ****


