%nproc=1
%NoSave
%Mem=1900MB
#P OB98/GEN NMR

erre ene a

0 1
  C     -139.704     -13.740    -359.168
  O     -140.962     -13.828    -359.799
  P     -141.171     -14.420    -361.267
  C     -143.167     -12.788    -361.606
  O     -142.690     -14.123    -361.713
  C     -144.694     -12.682    -361.726
  O     -145.116     -13.195    -363.006
  C     -145.367     -13.572    -360.667
  O     -145.547     -13.092    -359.349
  C     -146.631     -14.104    -361.340
  O     -147.795     -13.361    -360.976
  C     -146.328     -13.940    -362.831
  N     -148.585     -17.219    -365.972
  C     -148.919     -15.906    -365.705
  N     -150.103     -15.481    -366.194
  N     -148.159     -15.098    -365.004
  C     -147.052     -15.694    -364.505
  C     -146.614     -16.981    -364.714
  C     -147.435     -17.851    -365.527
  O     -147.221     -19.044    -365.718
  N     -145.483     -17.262    -363.987
  C     -145.260     -16.158    -363.306
  N     -146.208     -15.192    -363.553
  O     -140.591     -15.771    -361.540
  O     -140.347     -13.354    -362.154
  H     -148.526     -13.658    -361.537
  H     -139.948     -13.841    -362.901
  H     -149.248     -17.819    -366.458
  H     -144.455     -16.015    -362.599
  H     -147.123     -13.366    -363.321
  H     -146.819     -15.143    -361.039
  H     -150.773     -16.111    -366.609
  H     -144.725     -14.453    -360.541
  H     -150.453     -14.583    -365.874
  H     -145.024     -11.642    -361.695
  H     -142.680     -12.196    -362.391
  H     -142.856     -12.366    -360.644
  P     -144.930     -13.729    -358.016
  C     -147.182     -14.784    -357.403
  O     -146.119     -13.956    -356.966
  O     -144.098     -12.526    -357.357
  O     -144.044     -14.914    -358.232
  H     -143.421     -12.886    -356.752
  H     -148.047     -14.629    -356.761
  H     -146.872     -15.834    -357.337
  H     -147.455     -14.554    -358.442
  H     -139.822     -13.311    -358.195
  H     -139.054     -13.123    -359.753
  H     -139.281     -14.719    -359.077

 3  4  5  6  7  8  9  10  11  12  23  26  30  31 0
 6-311+G(2d,p)
 ****
 33  35  36  37  38 0
 6-311+G(2d,p)
 ****
 1  2  13  14  15  16  17  18  19  20  21  22  24  25 0
 3-21G
 ****
 27  28  29  32  34  39  40  41  42  43  44  45  46  47  48  49 0
 3-21G
 ****


