%nproc=1
%NoSave
%Mem=1900MB
#P OB98/GEN NMR

erre ene a

0 1
  C      -41.436     -27.486      72.185
  O      -42.034     -28.330      71.222
  H      -41.679     -26.441      71.975
  H      -41.826     -27.744      73.174
  H      -40.350     -27.623      72.186
  P      -41.620     -28.087      69.691
  C      -43.837     -26.750      69.420
  O      -42.427     -26.773      69.241
  C      -44.366     -25.364      69.070
  O      -43.682     -24.359      69.852
  C      -44.149     -24.973      67.612
  O      -45.141     -25.507      66.752
  C      -44.258     -23.460      67.706
  O      -45.640     -23.078      67.822
  C      -43.514     -23.178      69.021
  N      -39.985     -19.588      68.083
  C      -41.322     -19.514      68.263
  N      -42.187     -20.514      68.530
  C      -41.545     -21.688      68.618
  C      -40.187     -21.919      68.466
  C      -39.387     -20.799      68.181
  N      -38.029     -20.875      67.966
  N      -39.904     -23.264      68.607
  C      -41.068     -23.828      68.858
  N      -42.094     -22.922      68.842
  O      -42.374     -29.259      68.902
  O      -40.155     -28.040      69.410
  H      -45.655     -22.134      68.066
  H      -42.016     -29.343      67.997
  H      -41.753     -18.521      68.177
  H      -41.220     -24.883      69.045
  H      -43.932     -22.324      69.566
  H      -43.857     -22.952      66.825
  H      -43.142     -25.237      67.271
  H      -45.430     -25.324      69.335
  H      -44.068     -26.980      70.465
  H      -37.570     -20.046      67.622
  H      -37.600     -21.786      67.889
  H      -44.298     -27.504      68.775
  P      -44.734     -25.755      65.217
  C      -46.100     -23.656      64.527
  O      -44.849     -24.332      64.482
  O      -45.985     -26.570      64.643
  O      -43.445     -26.485      65.026
  H      -45.704     -27.194      63.948
  H      -46.024     -22.729      63.998
  H      -46.366     -23.465      65.546
  H      -46.852     -24.266      64.071

 6  7  8  9  10  11  12  13  14  15  25  28  32  33  34  35 0
 6-311+G(2d,p)
 ****
 36  39  40 0
 6-311+G(2d,p)
 ****
 1  2  3  4  5  16  17  18  19  20  21  22  23  24 0
 3-21G
 ****
 26  27  29  30  31  37  38  41  42  43  44  45  46  47 0
 3-21G
 ****
 48 0
 3-21G
 ****


