%nproc=1
%NoSave
%Mem=1900MB
#P OB98/GEN NMR

erre ene a

0 1
  C     -172.368     -88.077     217.049
  O     -172.103     -87.061     216.102
  H     -173.228     -87.778     217.654
  H     -171.503     -88.210     217.707
  H     -172.600     -89.018     216.543
  P     -170.896     -87.326     215.080
  C     -169.502     -85.166     215.492
  O     -170.372     -85.879     214.620
  C     -169.739     -83.667     215.345
  O     -169.321     -83.238     214.030
  C     -171.200     -83.250     215.469
  O     -171.623     -83.185     216.822
  C     -171.181     -81.895     214.775
  O     -170.750     -80.852     215.663
  C     -170.137     -82.101     213.669
  N     -172.908     -79.928     209.981
  C     -172.388     -79.440     211.131
  N     -171.642     -80.083     212.053
  C     -171.439     -81.362     211.688
  C     -171.913     -82.001     210.553
  C     -172.680     -81.225     209.666
  N     -173.239     -81.731     208.518
  N     -171.533     -83.328     210.552
  C     -170.838     -83.486     211.660
  N     -170.752     -82.323     212.374
  O     -171.644     -87.890     213.780
  O     -169.840     -88.259     215.569
  H     -171.347     -80.881     216.437
  H     -171.638     -88.866     213.799
  H     -172.604     -78.393     211.336
  H     -170.388     -84.416     211.992
  H     -169.465     -81.243     213.566
  H     -172.172     -81.620     214.410
  H     -171.839     -83.932     214.894
  H     -169.121     -83.141     216.089
  H     -168.461     -85.395     215.230
  H     -169.689     -85.490     216.523
  H     -173.800     -81.124     207.943
  H     -173.161     -82.723     208.332
  P     -172.611     -84.321     217.368
  C     -174.405     -82.508     217.873
  O     -173.663     -83.615     218.354
  O     -171.680     -85.172     218.352
  O     -173.230     -85.170     216.310
  H     -171.372     -85.988     217.910
  H     -175.057     -82.153     218.644
  H     -174.985     -82.809     217.026
  H     -173.733     -81.726     217.586

 6  7  8  9  10  11  12  13  14  15  25  28  32  33  34  35 0
 6-311+G(2d,p)
 ****
 36  37  40 0
 6-311+G(2d,p)
 ****
 1  2  3  4  5  16  17  18  19  20  21  22  23  24 0
 3-21G
 ****
 26  27  29  30  31  38  39 41  42  43  44  45  46  47  48 0
 3-21G
 ****


