%nproc=1
%NoSave
%Mem=1900MB
#P OB98/GEN NMR

erre ene a

0 1
  C     -175.141     139.217     -13.251
  O     -175.788     140.421     -13.622
  H     -174.499     139.415     -12.388
  H     -174.517     138.842     -14.067
  H     -175.880     138.461     -12.974
  P     -176.668     140.426     -14.960
  C     -178.375     138.803     -13.891
  O     -177.462     139.036     -14.958
  C     -179.476     137.848     -14.344
  O     -180.394     138.527     -15.224
  C     -178.950     136.656     -15.130
  O     -178.356     135.705     -14.270
  C     -180.212     136.202     -15.837
  O     -181.047     135.426     -14.967
  C     -180.878     137.555     -16.180
  N     -180.609     137.985     -17.547
  C     -181.003     137.102     -18.559
  O     -181.548     136.036     -18.277
  N     -180.748     137.446     -19.862
  C     -180.169     138.573     -20.135
  N     -179.944     138.851     -21.447
  C     -179.750     139.537     -19.100
  C     -179.994     139.181     -17.841
  O     -175.949     140.725     -16.240
  O     -177.815     141.499     -14.652
  H     -181.837     135.193     -15.495
  H     -177.532     142.391     -14.927
  H     -179.275     140.467     -19.375
  H     -179.720     139.835     -17.019
  H     -181.965     137.493     -16.047
  H     -179.984     135.591     -16.709
  H     -178.237     136.990     -15.890
  H     -180.036     137.522     -13.459
  H     -180.239     138.155     -22.123
  H     -178.803     139.771     -13.615
  H     -179.583     139.731     -21.781
  H     -177.854     138.392     -13.020
  P     -177.369     134.584     -14.851
  C     -175.234     136.017     -14.655
  O     -176.162     135.394     -15.538
  O     -178.014     133.548     -15.707
  O     -176.687     133.983     -13.532
  H     -177.314     133.402     -13.035
  H     -174.482     136.521     -15.225
  H     -174.774     135.273     -14.038
  H     -175.748     136.724     -14.038

 6  7  8  9  10  11  12  13  14  15  16  26  30  31  32  33  35 0
 6-311+G(2d,p)
 ****
 37  38 0
 6-311+G(2d,p)
 ****
 1  2  3  4  5  17  18  19  20  21  22  23  24  25 0
 3-21G
 ****
 27  28  29  34  36  39  40  41  42  43  44  45  46 0
 3-21G
 ****


