%nproc=1
%NoSave
%Mem=1900MB
#P OB98/GEN NMR

erre ene a

0 1
  C      283.554     -64.650    -332.127
  O      284.139     -65.021    -333.361
  H      282.478     -64.827    -332.180
  H      283.727     -63.584    -331.932
  H      283.977     -65.251    -331.317
  P      285.720     -64.783    -333.512
  C      286.028     -66.854    -335.018
  O      286.090     -65.433    -334.935
  C      286.110     -67.307    -336.475
  O      284.838     -67.018    -337.119
  C      287.207     -66.600    -337.280
  O      287.771     -67.519    -338.221
  C      286.445     -65.522    -338.035
  O      287.133     -65.086    -339.204
  C      285.114     -66.227    -338.295
  N      283.154     -63.051    -341.759
  C      284.115     -64.002    -341.841
  N      284.563     -64.819    -340.870
  C      283.868     -64.629    -339.729
  C      282.863     -63.705    -339.496
  C      282.516     -62.874    -340.580
  N      281.564     -61.885    -340.500
  N      282.428     -63.782    -338.185
  C      283.151     -64.746    -337.641
  N      284.047     -65.273    -338.531
  O      286.553     -65.243    -332.366
  O      285.788     -63.212    -333.826
  H      286.496     -64.600    -339.774
  H      285.135     -62.955    -334.506
  H      284.599     -64.105    -342.813
  H      283.074     -65.081    -336.610
  H      285.157     -66.899    -339.165
  H      286.299     -64.649    -337.385
  H      287.994     -66.181    -336.657
  H      286.238     -68.395    -336.503
  H      285.089     -67.216    -334.571
  H      281.375     -61.340    -341.329
  H      281.064     -61.739    -339.628
  H      286.869     -67.263    -334.442
  P      289.359     -67.545    -338.434
  C      289.739     -70.035    -337.910
  O      289.798     -69.017    -338.898
  O      290.167     -66.958    -337.323
  O      289.538     -66.690    -339.786
  H      290.316     -66.096    -339.688
  H      290.053     -70.965    -338.337
  H      288.735     -70.128    -337.553
  H      290.385     -69.780    -337.096

 6  7  8  9  10  11  12  13  14  15  25  28  32  33  34  35 0
 6-311+G(2d,p)
 ****
 36  39  40 0
 6-311+G(2d,p)
 ****
 1  2  3  4  5  16  17  18  19  20  21  22  23  24 0
 3-21G
 ****
 26  27  29  30  31  37  38  41  42  43  44  45  46  47 0
 3-21G
 ****
 48 0
 3-21G
 ****


