%nproc=1
%NoSave
%Mem=1900MB
#P OB98/GEN NMR

erre ene a

0 1
  C      371.933     -42.134     179.963
  O      371.677     -41.857     178.600
  H      372.089     -43.209     180.094
  H      372.844     -41.608     180.263
  H      371.102     -41.797     180.594
  P      370.238     -42.273     178.022
  C      369.110     -41.878     175.714
  O      370.321     -42.095     176.425
  C      369.385     -41.707     174.218
  O      369.957     -40.381     174.007
  C      370.369     -42.737     173.634
  O      369.922     -43.091     172.316
  C      371.671     -41.950     173.520
  O      372.535     -42.470     172.514
  C      371.147     -40.550     173.216
  N      373.962     -36.785     171.265
  C      372.873     -37.428     170.795
  N      372.147     -38.392     171.408
  C      372.609     -38.621     172.654
  C      373.704     -38.029     173.272
  C      374.413     -37.082     172.509
  N      375.563     -36.470     172.952
  N      373.892     -38.570     174.529
  C      372.945     -39.482     174.659
  N      372.147     -39.547     173.552
  O      369.311     -41.046     178.489
  O      369.710     -43.586     178.496
  H      372.170     -42.240     171.639
  H      368.967     -41.221     179.383
  H      372.546     -37.153     169.799
  H      372.810     -40.135     175.514
  H      370.883     -40.412     172.163
  H      372.200     -41.978     174.479
  H      370.478     -43.637     174.242
  H      368.431     -41.730     173.682
  H      368.631     -40.971     176.098
  H      376.065     -35.879     172.296
  H      375.972     -36.761     173.824
  H      368.434     -42.726     175.875
  P      368.782     -44.210     172.203
  C      366.727     -44.038     170.602
  O      368.140     -44.140     170.733
  O      367.615     -43.646     173.142
  O      369.229     -45.575     172.629
  H      367.133     -44.382     173.560
  H      366.467     -44.002     169.565
  H      366.387     -43.146     171.086
  H      366.264     -44.889     171.057

 6  7  8  9  10  11  12  13  14  15  25  28  32  33  34  35 0
 6-311+G(2d,p)
 ****
 36  39  40 0
 6-311+G(2d,p)
 ****
 1  2  3  4  5  16  17  18  19  20  21  22  23  24 0
 3-21G
 ****
 26  27  29  30  31  37  38  41  42  43  44  45  46  47 0
 3-21G
 ****
 48 0
 3-21G
 ****


