%nproc=1
%NoSave
%Mem=1900MB
#P OB98/GEN NMR

erre ene a

0 1
  C     -138.668      31.602     322.023
  O     -139.142      32.726     321.309
  H     -139.376      31.369     322.823
  H     -137.693      31.816     322.469
  H     -138.592      30.739     321.357
  P     -138.194      33.300     320.150
  C     -139.216      31.644     318.427
  O     -138.041      32.137     319.056
  C     -138.859      31.079     317.053
  O     -138.431      32.151     316.180
  C     -137.707      30.086     317.069
  O     -138.104      28.793     317.499
  C     -137.286      30.107     315.611
  O     -138.082      29.218     314.816
  C     -137.526      31.575     315.215
  N     -136.274      32.323     315.121
  C     -135.329      31.812     314.235
  O     -135.515      30.796     313.564
  N     -134.140      32.483     314.177
  C     -133.793      33.562     314.935
  O     -132.688      34.083     314.872
  C     -134.823      34.049     315.867
  C     -135.997      33.416     315.918
  O     -136.757      33.359     320.849
  O     -138.605      34.626     319.602
  H     -136.525      34.284     321.047
  H     -137.647      29.176     313.942
  H     -133.444      32.128     313.538
  H     -134.579      34.903     316.485
  H     -136.769      33.748     316.605
  H     -138.028      31.633     314.241
  H     -136.249      29.798     315.501
  H     -136.884      30.470     317.684
  H     -139.758      30.623     316.620
  H     -139.936      32.457     318.297
  H     -139.664      30.875     319.063
  P     -136.973      27.826     318.102
  C     -136.855      29.009     320.452
  O     -136.217      28.687     319.225
  O     -135.949      27.769     316.875
  O     -137.506      26.505     318.545
  H     -136.000      28.571     316.324
  H     -136.189      29.584     321.060
  H     -137.118      28.107     320.965
  H     -137.739      29.578     320.255

 6  7  8  9  10  11  12  13  14  15  16  27  31  32  33  34  35 0
 6-311+G(2d,p)
 ****
 36  37 0
 6-311+G(2d,p)
 ****
 1  2  3  4  5  17  18  19  20  21  22  23  24  25 0
 3-21G
 ****
 26  28  29  30  38  39  40  41  42  43  44  45 0
 3-21G
 ****


