%nproc=1
%NoSave
%Mem=1900MB
#P OB98/GEN NMR

erre ene a

0 1
  C      231.978     388.779    -604.646
  O      232.571     387.722    -603.917
  H      231.587     388.379    -605.583
  H      232.716     389.552    -604.873
  H      231.146     389.213    -604.078
  P      233.260     388.059    -602.511
  C      235.269     386.465    -602.817
  O      234.080     386.745    -602.088
  C      236.029     385.303    -602.165
  O      236.791     385.771    -601.039
  C      235.124     384.185    -601.637
  O      234.743     383.318    -602.690
  C      236.066     383.521    -600.646
  O      237.027     382.707    -601.352
  C      236.775     384.740    -600.022
  N      236.951     385.034    -594.952
  C      237.715     384.285    -595.822
  N      238.636     383.473    -595.265
  N      237.577     384.313    -597.123
  C      236.576     385.113    -597.535
  C      235.736     385.900    -596.773
  C      235.944     385.903    -595.339
  O      235.307     386.578    -594.537
  N      234.773     386.507    -597.537
  C      235.061     386.139    -598.769
  N      236.141     385.280    -598.825
  O      232.349     388.574    -601.437
  O      234.415     389.104    -602.874
  H      237.249     383.173    -602.179
  H      234.096     390.022    -602.801
  H      237.097     384.966    -593.961
  H      234.525     386.455    -599.662
  H      237.814     384.515    -599.755
  H      235.545     382.869    -599.945
  H      238.685     383.290    -594.273
  H      234.262     384.584    -601.095
  H      239.168     382.867    -595.881
  H      236.743     384.911    -602.906
  H      235.887     387.371    -602.807
  H      235.030     386.208    -603.852
  P      233.227     383.265    -603.231
  C      233.181     380.682    -603.354
  O      233.124     381.902    -604.074
  O      232.783     384.485    -603.964
  O      232.364     382.926    -601.929
  H      232.120     383.725    -601.403
  H      233.101     379.861    -604.036
  H      232.373     380.643    -602.653
  H      234.111     380.621    -602.829

 6  7  8  9  10  11  12  13  14  15  26  29  33  34 0
 6-311+G(2d,p)
 ****
 36  38  39  40  41 0
 6-311+G(2d,p)
 ****
 1  2  3  4  5  16  17  18  19  20  21  22  23  24  25 0
 3-21G
 ****
 27  28  30  31  32  35  37  42  43  44  45  46  47 0
 3-21G
 ****
 48  49 0
 3-21G
 ****


