%nproc=1
%NoSave
%Mem=1900MB
#P OB98/GEN NMR

erre ene a

0 1
  C     -930.043    -767.080    -899.020
  O     -929.067    -766.785    -898.030
  H     -930.192    -768.152    -899.060
  H     -929.701    -766.719    -900.000
  H     -930.992    -766.604    -898.770
  P     -928.684    -765.247    -897.830
  C     -928.463    -765.443    -895.270
  O     -927.773    -765.237    -896.500
  C     -927.643    -766.341    -894.340
  O     -927.563    -767.673    -894.890
  C     -926.192    -765.839    -894.150
  O     -925.788    -766.043    -892.790
  C     -925.382    -766.729    -895.070
  O     -924.020    -766.841    -894.650
  C     -926.185    -768.040    -895.010
  N     -923.529    -771.960    -896.940
  C     -923.627    -771.466    -895.680
  N     -924.386    -770.426    -895.260
  C     -925.097    -769.908    -896.260
  C     -925.105    -770.313    -897.590
  C     -924.280    -771.387    -897.900
  N     -924.131    -771.904    -899.180
  N     -925.958    -769.517    -898.330
  C     -926.467    -768.652    -897.470
  N     -925.971    -768.844    -896.200
  O     -929.819    -764.281    -897.830
  O     -927.593    -765.039    -898.980
  H     -923.579    -767.494    -895.240
  H     -926.967    -765.778    -899.030
  H     -923.017    -771.954    -894.900
  H     -927.204    -767.868    -897.690
  H     -925.920    -768.660    -894.150
  H     -925.388    -766.323    -896.090
  H     -926.070    -764.773    -894.410
  H     -928.154    -766.415    -893.370
  H     -929.433    -765.931    -895.460
  H     -923.515    -772.674    -899.340
  H     -924.698    -771.494    -899.930
  H     -928.645    -764.473    -894.810
  P     -926.136    -764.929    -891.710
  C     -926.245    -766.690    -889.810
  O     -925.703    -765.463    -890.260
  O     -927.519    -764.340    -891.780
  O     -925.022    -763.807    -892.020
  H     -925.440    -762.919    -891.890
  H     -925.866    -766.911    -888.834
  H     -925.968    -767.472    -890.486
  H     -927.312    -766.615    -889.769

 6  7  8  9  10  11  12  13  14  15  25  28  32  33  34  35 0
 6-311+G(2d,p)
 ****
 36  39  40 0
 6-311+G(2d,p)
 ****
 1  2  3  4  5  16  17  18  19  20  21  22  23  24 0
 3-21G
 ****
 26  27  29  30  31  37  38  41  42  43  44  45  46  47 0
 3-21G
 ****
 48 0
 3-21G
 ****


