%nproc=1
%NoSave
%Mem=1900MB
#P OB98/GEN NMR

erre ene a

0 1
  C      382.343     -50.640     163.089
  O      383.314     -49.727     162.616
  H      381.794     -51.043     162.234
  H      381.640     -50.127     163.747
  H      382.819     -51.468     163.624
  P      384.393     -49.190     163.673
  C      386.156     -50.305     162.120
  O      385.723     -50.063     163.450
  C      386.968     -51.598     162.060
  O      388.252     -51.367     162.707
  C      386.304     -52.785     162.771
  O      386.603     -53.975     162.032
  C      387.024     -52.834     164.104
  O      386.985     -54.108     164.735
  C      388.436     -52.409     163.687
  N      389.238     -51.934     164.812
  C      389.737     -52.894     165.688
  O      389.627     -54.109     165.537
  N      390.397     -52.403     166.787
  C      390.574     -51.086     167.097
  O      391.155     -50.709     168.108
  C      390.015     -50.123     166.139
  C      389.380     -50.584     165.061
  O      383.827     -49.727     165.069
  O      384.612     -47.715     163.672
  H      383.222     -49.073     165.465
  H      387.697     -54.123     165.407
  H      390.764     -53.084     167.432
  H      390.129     -49.070     166.359
  H      388.937     -49.901     164.345
  H      388.951     -53.238     163.189
  H      386.586     -52.102     164.793
  H      385.220     -52.687     162.891
  H      387.175     -51.835     161.011
  H      386.782     -49.474     161.786
  H      385.279     -50.373     161.462
  P      385.471     -54.526     161.035
  C      387.293     -54.410     159.156
  O      385.963     -54.124     159.563
  O      384.269     -53.517     161.343
  O      385.159     -55.971     161.246
  H      384.571     -52.615     161.542
  H      387.439     -54.072     158.151
  H      387.462     -55.465     159.206
  H      387.980     -53.908     159.804

 6  7  8  9  10  11  12  13  14  15  16  27  31  32  33  34  35 0
 6-311+G(2d,p)
 ****
 36  37 0
 6-311+G(2d,p)
 ****
 1  2  3  4  5  17  18  19  20  21  22  23  24  25 0
 3-21G
 ****
 26  28  29  30  38  39  40  41  42  43  44  45 0
 3-21G
 ****


