%nproc=1
%NoSave
%Mem=1900MB
#P OB98/GEN NMR

erre ene a

0 1
  C     -132.012       9.356      -3.179
  O     -132.645       9.478      -4.439
  H     -131.275       8.552      -3.233
  H     -132.750       9.109      -2.411
  H     -131.502      10.288      -2.923
  P     -133.753      10.630      -4.574
  C     -131.952      12.487      -4.640
  O     -133.055      11.926      -3.940
  C     -132.131      13.995      -4.797
  O     -130.948      14.590      -5.358
  C     -133.275      14.399      -5.720
  O     -134.518      14.337      -5.041
  C     -132.882      15.830      -6.048
  O     -133.255      16.700      -4.961
  C     -131.348      15.743      -6.145
  N     -129.799      18.219     -10.366
  C     -130.430      18.650      -9.253
  N     -130.848      17.930      -8.192
  C     -130.557      16.630      -8.352
  C     -129.918      16.043      -9.433
  C     -129.520      16.900     -10.473
  N     -128.867      16.456     -11.603
  N     -129.793      14.682      -9.248
  C     -130.301      14.460      -8.053
  N     -130.809      15.601      -7.485
  O     -135.108      10.288      -4.059
  O     -133.682      10.937      -6.144
  H     -133.013      17.609      -5.216
  H     -132.761      10.901      -6.458
  H     -130.622      19.718      -9.207
  H     -130.309      13.501      -7.549
  H     -130.863      16.624      -5.707
  H     -133.385      16.205      -6.942
  H     -133.274      13.807      -6.641
  H     -132.267      14.423      -3.796
  H     -131.848      12.020      -5.625
  H     -128.773      17.103     -12.370
  H     -128.773      15.460     -11.736
  H     -131.050      12.273      -4.059
  P     -135.777      15.180      -5.564
  C     -137.213      13.227      -6.420
  O     -136.411      14.346      -6.780
  O     -135.495      16.609      -5.874
  O     -136.872      15.026      -4.410
  H     -137.360      15.863      -4.292
  H     -137.579      12.751      -7.306
  H     -138.039      13.557      -5.825
  H     -136.624      12.532      -5.859

 6  7  8  9  10  11  12  13  14  15  25  28  32  33  34  35 0
 6-311+G(2d,p)
 ****
 36  39  40 0
 6-311+G(2d,p)
 ****
 1  2  3  4  5  16  17  18  19  20  21  22  23  24 0
 3-21G
 ****
 26  27  29  30  31  37  38  41  42  43  44  45  46  47 0
 3-21G
 ****
 48 0
 3-21G
 ****


