%nproc=1
%NoSave
%Mem=1900MB
#P OB98/GEN NMR

erre ene a

0 1
  C      -14.945     187.362    -352.414
  O      -15.023     187.556    -351.016
  H      -15.901     186.966    -352.767
  H      -14.159     186.644    -352.659
  H      -14.752     188.313    -352.919
  P      -13.717     188.060    -350.239
  C      -14.376     190.355    -349.244
  O      -13.737     189.659    -350.309
  C      -13.943     191.819    -349.224
  O      -12.549     191.927    -348.880
  C      -14.097     192.533    -350.564
  O      -15.454     192.834    -350.815
  C      -13.191     193.732    -350.342
  O      -13.844     194.734    -349.546
  C      -12.020     193.088    -349.560
  N      -10.885     192.723    -350.403
  C       -9.852     193.662    -350.484
  O       -9.932     194.729    -349.875
  N       -8.762     193.369    -351.266
  C       -8.688     192.230    -351.878
  N       -7.581     191.997    -352.631
  C       -9.741     191.199    -351.792
  C      -10.806     191.513    -351.057
  O      -12.419     187.437    -350.657
  O      -14.045     187.760    -348.702
  H      -14.194     194.268    -348.763
  H      -13.686     186.893    -348.438
  H       -9.633     190.258    -352.310
  H      -11.624     190.812    -350.941
  H      -11.657     193.773    -348.783
  H      -12.902     194.210    -351.280
  H      -13.671     191.923    -351.366
  H      -14.518     192.331    -348.438
  H       -6.873     192.728    -352.644
  H      -14.075     189.861    -348.313
  H       -7.342     191.096    -353.016
  H      -15.465     190.285    -349.334
  P      -16.139     192.498    -352.226
  C      -17.254     190.355    -351.346
  O      -16.312     190.901    -352.255
  O      -15.457     193.077    -353.415
  O      -17.645     193.005    -352.041
  H      -17.690     193.990    -352.122
  H      -17.281     189.291    -351.457
  H      -18.223     190.760    -351.551
  H      -16.968     190.602    -350.345

 6  7  8  9  10  11  12  13  14  15  16  26  30  31  32  33  35 0
 6-311+G(2d,p)
 ****
 37  38 0
 6-311+G(2d,p)
 ****
 1  2  3  4  5  17  18  19  20  21  22  23  24  25 0
 3-21G
 ****
 27  28  29  34  36  39  40  41  42  43  44  45  46 0
 3-21G
 ****


