%nproc=1
%NoSave
%Mem=1900MB
#P OB98/GEN NMR

erre ene a

0 1
  C     -164.461    -114.321    -107.921
  O     -163.489    -115.308    -107.661
  H     -164.340    -113.515    -107.191
  H     -165.466    -114.735    -107.808
  H     -164.335    -113.908    -108.923
  P     -163.460    -116.639    -108.560
  C     -160.918    -116.949    -108.730
  O     -162.117    -117.414    -108.124
  C     -159.742    -117.037    -107.757
  O     -159.918    -116.063    -106.693
  C     -159.585    -118.416    -107.099
  O     -158.217    -118.826    -107.158
  C     -159.981    -118.169    -105.652
  O     -159.413    -119.112    -104.748
  C     -159.526    -116.716    -105.473
  N     -160.118    -116.098    -104.294
  C     -159.270    -115.922    -103.197
  O     -158.091    -116.276    -103.262
  N     -159.784    -115.403    -102.039
  C     -161.049    -115.127    -101.965
  N     -161.502    -114.642    -100.778
  C     -161.988    -115.323    -103.090
  C     -161.459    -115.804    -104.215
  O     -163.608    -116.404    -110.025
  O     -164.614    -117.567    -107.953
  H     -158.439    -118.982    -104.735
  H     -164.894    -118.217    -108.639
  H     -163.034    -115.083    -102.975
  H     -162.069    -115.982    -105.094
  H     -158.433    -116.655    -105.389
  H     -161.073    -118.231    -105.561
  H     -160.206    -119.184    -107.558
  H     -158.828    -116.746    -108.291
  H     -160.825    -114.530    -100.031
  H     -161.069    -115.914    -109.057
  H     -162.468    -114.415    -100.594
  H     -160.707    -117.575    -109.603
  P     -157.956    -120.394    -107.383
  C     -157.744    -120.485    -109.968
  O     -157.078    -120.564    -108.716
  O     -159.398    -120.952    -107.795
  O     -157.423    -121.088    -106.175
  H     -159.757    -121.505    -107.075
  H     -157.035    -120.616    -110.758
  H     -158.211    -119.527    -110.064
  H     -158.488    -121.252    -110.025

 6  7  8  9  10  11  12  13  14  15  16  26  30  31  32  33  35 0
 6-311+G(2d,p)
 ****
 37  38 0
 6-311+G(2d,p)
 ****
 1  2  3  4  5  17  18  19  20  21  22  23  24  25 0
 3-21G
 ****
 27  28  29  34  36  39  40  41  42  43  44  45  46 0
 3-21G
 ****


