%nproc=1
%NoSave
%Mem=1900MB
#P OB98/GEN NMR

erre ene a

0 1
  C      640.924     -23.308    -645.138
  O      639.940     -24.222    -644.714
  H      640.527     -22.720    -645.969
  H      641.812     -23.843    -645.482
  H      641.195     -22.628    -644.323
  P      640.247     -25.084    -643.397
  C      637.982     -24.408    -642.317
  O      639.399     -24.420    -642.204
  C      637.347     -24.060    -640.972
  O      637.576     -25.155    -640.045
  C      637.904     -22.783    -640.340
  O      636.832     -22.079    -639.705
  C      638.867     -23.295    -639.283
  O      639.068     -22.360    -638.221
  C      638.196     -24.610    -638.864
  N      639.157     -25.538    -638.278
  C      639.550     -25.287    -636.961
  O      639.095     -24.317    -636.352
  N      640.491     -26.101    -636.383
  C      641.056     -27.034    -637.088
  N      642.003     -27.789    -636.466
  C      640.721     -27.292    -638.500
  C      639.770     -26.520    -639.026
  O      641.754     -24.688    -643.037
  O      640.064     -26.558    -643.540
  H      639.576     -22.810    -637.511
  H      642.226     -25.433    -642.618
  H      641.236     -28.062    -639.054
  H      639.462     -26.626    -640.061
  H      637.399     -24.417    -638.130
  H      639.841     -23.496    -639.741
  H      638.395     -22.125    -641.062
  H      636.260     -23.986    -641.112
  H      642.214     -27.572    -635.499
  H      637.644     -25.402    -642.625
  H      642.535     -28.511    -636.931
  H      637.688     -23.683    -643.083
  P      635.957     -21.111    -640.634
  C      633.652     -22.253    -640.256
  O      634.692     -21.942    -641.173
  O      636.868     -20.922    -641.934
  O      635.627     -19.804    -639.995
  H      637.235     -20.019    -641.956
  H      632.886     -22.805    -640.759
  H      633.240     -21.347    -639.864
  H      634.047     -22.841    -639.455

 6  7  8  9  10  11  12  13  14  15  16  26  30  31  32  33  35 0
 6-311+G(2d,p)
 ****
 37  38 0
 6-311+G(2d,p)
 ****
 1  2  3  4  5  17  18  19  20  21  22  23  24  25 0
 3-21G
 ****
 27  28  29  34  36  39  40  41  42  43  44  45  46 0
 3-21G
 ****


