%nproc=1
%NoSave
%Mem=1900MB
#P OB98/GEN NMR

erre ene a

0 1
  C      -35.324     406.260    -329.663
  O      -34.166     406.137    -328.826
  P      -34.106     407.119    -327.561
  C      -36.330     406.835    -326.226
  O      -34.967     406.449    -326.374
  C      -37.125     405.749    -325.512
  O      -37.384     404.606    -326.353
  C      -36.412     405.204    -324.268
  O      -36.595     406.086    -323.167
  C      -37.138     403.863    -324.065
  O      -38.376     404.028    -323.356
  C      -37.412     403.415    -325.520
  N      -36.467     398.456    -325.966
  C      -37.437     399.114    -325.236
  N      -38.297     398.328    -324.547
  N      -37.567     400.411    -325.197
  C      -36.643     401.069    -325.927
  C      -35.651     400.526    -326.726
  C      -35.534     399.085    -326.771
  O      -34.702     398.456    -327.429
  N      -34.941     401.511    -327.373
  C      -35.421     402.624    -326.880
  N      -36.496     402.431    -326.045
  O      -34.986     408.373    -328.014
  O      -32.714     407.520    -327.192
  H      -38.973     404.582    -323.888
  H      -34.413     409.146    -328.154
  H      -36.422     397.445    -325.967
  H      -35.053     403.627    -327.106
  H      -38.426     402.983    -325.616
  H      -36.528     403.165    -323.500
  H      -38.279     397.325    -324.537
  H      -35.371     405.030    -324.474
  H      -39.021     398.791    -323.995
  H      -38.090     406.181    -325.216
  H      -36.767     407.032    -327.207
  H      -36.355     407.775    -325.669
  P      -35.298     406.527    -322.338
  C      -35.126     409.013    -323.086
  O      -35.425     408.095    -322.051
  O      -34.128     406.438    -323.430
  O      -35.001     405.678    -321.153
  H      -33.326     405.994    -323.045
  H      -35.721     409.932    -322.962
  H      -35.349     408.597    -324.089
  H      -34.059     409.284    -323.051
  H      -35.257     405.561    -330.470
  H      -35.376     407.254    -330.056
  H      -36.203     406.057    -329.088

 3  4  5  6  7  8  9  10  11  12  23  26  30  31 0
 6-311+G(2d,p)
 ****
 33  35  36  37  38 0
 6-311+G(2d,p)
 ****
 1  2  13  14  15  16  17  18  19  20  21  22  24  25 0
 3-21G
 ****
 27  28  29  32  34  39  40  41  42  43  44  45  46  47  48  49 0
 3-21G
 ****


