%nproc=1
%NoSave
%Mem=1900MB
#P OB98/GEN NMR

erre ene a

0 1
  C      259.240      15.343    -119.754
  O      258.040      14.897    -119.158
  H      260.079      14.786    -119.323
  H      259.389      16.407    -119.547
  H      259.229      15.176    -120.836
  P      256.638      15.354    -119.794
  C      256.198      17.448    -118.352
  O      256.561      16.952    -119.633
  C      255.737      18.908    -118.447
  O      256.894      19.735    -118.795
  C      254.656      19.159    -119.522
  O      253.826      20.228    -119.052
  C      255.509      19.605    -120.697
  O      254.739      20.199    -121.708
  C      256.519      20.496    -119.962
  N      257.684      20.843    -120.772
  C      258.103      22.173    -120.753
  O      257.565      23.053    -120.088
  N      259.179      22.467    -121.554
  C      259.856      21.587    -122.352
  O      260.830      21.900    -123.029
  C      259.349      20.202    -122.348
  C      258.302      19.897    -121.572
  O      255.435      14.610    -119.318
  O      256.862      15.165    -121.373
  H      256.482      14.313    -121.657
  H      254.254      20.975    -121.361
  H      259.499      23.424    -121.553
  H      259.846      19.484    -122.984
  H      257.898      18.888    -121.543
  H      256.040      21.417    -119.608
  H      256.014      18.744    -121.148
  H      254.042      18.273    -119.722
  H      255.398      19.237    -117.457
  H      257.074      17.377    -117.698
  H      255.392      16.828    -117.938
  P      252.324      20.009    -118.514
  C      251.423      19.526    -120.881
  O      251.526      19.068    -119.542
  O      251.609      21.284    -118.202
  O      252.468      19.107    -117.197
  H      251.790      19.379    -116.546
  H      250.872      18.814    -121.460
  H      252.403      19.641    -121.295
  H      250.916      20.468    -120.898

 6  7  8  9  10  11  12  13  14  15  16  27  31  32  33  34  35 0
 6-311+G(2d,p)
 ****
 36  37 0
 6-311+G(2d,p)
 ****
 1  2  3  4  5  17  18  19  20  21  22  23  24  25 0
 3-21G
 ****
 26  28  29  30  38  39  40  41  42  43  44  45 0
 3-21G
 ****


