%nproc=1
%NoSave
%Mem=1900MB
#P OB98/GEN NMR

erre ene a

0 1
  C      765.030    -896.490    -547.665
  O      763.878    -895.750    -547.343
  H      765.747    -895.830    -548.169
  H      764.783    -897.310    -548.342
  H      765.510    -896.880    -546.756
  P      762.735    -896.450    -546.454
  C      762.198    -898.370    -548.079
  O      761.725    -897.180    -547.465
  C      761.229    -898.800    -549.175
  O      760.000    -899.280    -548.602
  C      760.829    -897.670    -550.121
  O      761.871    -897.350    -551.036
  C      759.570    -898.260    -550.757
  O      759.908    -899.150    -551.815
  C      758.960    -899.030    -549.575
  N      757.843    -898.280    -548.950
  C      756.620    -898.370    -549.614
  O      756.424    -899.030    -550.620
  N      755.602    -897.610    -549.073
  C      755.729    -896.690    -548.064
  O      754.887    -895.860    -547.789
  C      757.061    -896.680    -547.385
  C      758.016    -897.470    -547.876
  O      762.084    -895.550    -545.441
  O      763.504    -897.670    -545.751
  H      763.714    -897.430    -544.831
  H      760.423    -898.630    -552.465
  H      754.722    -897.640    -549.556
  H      757.166    -896.030    -546.528
  H      759.004    -897.450    -547.398
  H      758.579    -900.000    -549.890
  H      758.933    -897.470    -551.166
  H      760.553    -896.790    -549.548
  H      761.685    -899.630    -549.736
  H      762.256    -899.160    -547.314
  H      763.213    -898.200    -548.481
  P      762.357    -895.840    -551.235
  C      760.201    -894.920    -552.328
  O      761.573    -895.250    -552.514
  O      763.821    -895.620    -551.232
  O      761.648    -895.060    -550.015
  H      762.332    -894.520    -549.563
  H      759.798    -894.542    -553.244
  H      760.114    -894.175    -551.565
  H      759.660    -895.795    -552.035

 6  7  8  9  10  11  12  13  14  15  16  27  31  32  33  34  35 0
 6-311+G(2d,p)
 ****
 36  37 0
 6-311+G(2d,p)
 ****
 1  2  3  4  5  17  18  19  20  21  22  23  24  25 0
 3-21G
 ****
 26  28  29  30  38  39  40  41  42  43  44  45 0
 3-21G
 ****


