%nproc=1
%NoSave
%Mem=1900MB
#P OB98/GEN NMR

erre ene a

0 1
  C     -132.615      48.075    -484.805
  O     -133.586      48.843    -485.521
  P     -134.913      48.092    -485.993
  C     -135.569      50.563    -486.430
  O     -135.788      49.192    -486.773
  C     -136.731      51.423    -486.904
  O     -137.956      50.922    -486.353
  C     -136.655      52.887    -486.484
  O     -135.797      53.637    -487.331
  C     -138.108      53.317    -486.661
  O     -138.357      53.638    -488.038
  C     -138.881      52.042    -486.237
  N     -142.429      53.967    -483.182
  C     -142.241      54.150    -484.536
  N     -143.147      54.923    -485.181
  N     -141.263      53.609    -485.205
  C     -140.457      52.833    -484.457
  C     -140.525      52.577    -483.090
  C     -141.596      53.219    -482.347
  O     -141.782      53.146    -481.143
  N     -139.542      51.725    -482.671
  C     -138.895      51.420    -483.781
  N     -139.392      52.096    -484.881
  O     -135.725      47.863    -484.623
  O     -134.694      46.799    -486.723
  H     -137.887      54.464    -488.235
  H     -136.322      47.102    -484.718
  H     -143.218      54.398    -482.718
  H     -138.060      50.726    -483.839
  H     -139.712      51.850    -486.925
  H     -138.357      54.215    -486.071
  H     -144.000      55.257    -484.737
  H     -136.374      52.979    -485.432
  H     -143.047      55.029    -486.180
  H     -136.794      51.339    -488.002
  H     -134.643      50.914    -486.909
  H     -135.441      50.641    -485.338
  P     -134.792      54.662    -486.597
  C     -133.125      54.471    -488.587
  O     -133.930      55.316    -487.784
  O     -133.773      53.703    -485.840
  O     -135.460      55.622    -485.659
  H     -133.380      54.157    -485.075
  H     -133.603      53.501    -488.753
  H     -132.159      54.315    -488.097
  H     -132.954      54.954    -489.551
  H     -131.783      48.699    -484.552
  H     -132.280      47.264    -485.417
  H     -133.056      47.688    -483.910

 3  4  5  6  7  8  9  10  11  12  23  26  30  31  33  0
 6-311+G(2d,p)
 ****
 35  36  37  38 0
 6-311+G(2d,p)
 ****
 1  2  13  14  15  16  17  18  19  20  21  22  24  25  27  28  29 0
 3-21G
 ****
 32  34  39  40  41  42  43  44  45  46  47  48  49 0
 3-21G
 ****


