%nproc=1
%NoSave
%Mem=1900MB
#P OB98/GEN NMR

erre ene a

0 1
  C      128.188     241.257    -269.366
  O      127.025     240.889    -270.126
  P      126.277     242.034    -270.962
  C      124.535     242.540    -269.097
  O      125.585     243.035    -269.918
  C      124.544     243.243    -267.736
  O      124.618     244.681    -267.880
  C      123.304     242.968    -266.893
  O      123.404     241.740    -266.193
  C      123.355     244.130    -265.910
  O      124.303     243.838    -264.856
  C      123.870     245.278    -266.793
  N      119.788     248.021    -265.610
  C      120.648     247.319    -264.790
  N      120.397     247.361    -263.468
  N      121.675     246.639    -265.240
  C      121.816     246.698    -266.587
  C      121.024     247.352    -267.498
  C      119.884     248.098    -266.988
  O      119.070     248.722    -267.673
  N      121.478     247.181    -268.776
  C      122.558     246.438    -268.640
  N      122.795     246.098    -267.327
  O      125.031     241.254    -271.594
  O      127.124     242.675    -272.014
  H      124.314     244.620    -264.273
  H      124.764     241.684    -272.428
  H      119.005     248.524    -265.215
  H      123.194     246.109    -269.453
  H      124.547     245.951    -266.254
  H      122.395     244.310    -265.430
  H      119.658     247.904    -263.052
  H      122.392     243.026    -267.503
  H      121.045     246.880    -262.849
  H      125.435     242.904    -267.183
  H      124.643     241.460    -268.960
  H      123.580     242.678    -269.615
  P      122.426     240.540    -266.634
  C      120.331     241.070    -265.195
  O      120.932     241.102    -266.470
  O      122.582     239.493    -265.433
  O      122.760     239.922    -267.960
  H      122.473     238.580    -265.772
  H      119.395     241.642    -265.233
  H      120.987     241.535    -264.445
  H      120.111     240.039    -264.905
  H      128.575     240.394    -268.866
  H      127.921     241.999    -268.643
  H      128.934     241.652    -270.024

 3  4  5  6  7  8  9  10  11  12  23  26  30  31 0
 6-311+G(2d,p)
 ****
 33  35  36  37  38 0
 6-311+G(2d,p)
 ****
 1  2  13  14  15  16  17  18  19  20  21  22  24  25 0
 3-21G
 ****
 27  28  29  32  34  39  40  41  42  43  44  45  46  47  48  49 0
 3-21G
 ****


