%nproc=1
%NoSave
%Mem=1900MB
#P OB98/GEN NMR

erre ene a

0 1
  C       71.724     -53.687     106.197
  O       71.084     -53.567     107.448
  H       70.977     -53.561     105.410
  H       72.166     -54.684     106.106
  H       72.500     -52.929     106.070
  P       71.975     -53.269     108.743
  C       70.238     -51.604     109.674
  O       70.989     -52.787     109.915
  C       69.396     -51.206     110.886
  O       68.390     -52.210     111.147
  C       70.228     -51.101     112.164
  O       70.892     -49.865     112.355
  C       69.174     -51.329     113.243
  O       68.505     -50.100     113.573
  C       68.206     -52.304     112.570
  N       67.520     -55.772     116.258
  C       67.231     -54.421     116.270
  N       66.754     -53.923     117.432
  N       67.414     -53.636     115.241
  C       67.987     -54.253     114.182
  C       68.331     -55.581     114.057
  C       68.073     -56.454     115.184
  O       68.318     -57.656     115.228
  N       68.887     -55.844     112.829
  C       68.948     -54.665     112.243
  N       68.390     -53.673     113.014
  O       72.749     -51.916     108.365
  O       72.938     -54.353     109.121
  H       67.854     -50.284     114.274
  H       73.587     -51.864     108.859
  H       67.333     -56.333     117.069
  H       69.360     -54.480     111.256
  H       67.161     -52.037     112.775
  H       69.618     -51.705     114.169
  H       66.707     -54.464     118.282
  H       70.954     -51.920     112.215
  H       66.782     -52.911     117.565
  H       68.869     -50.269     110.669
  H       69.589     -51.812     108.821
  H       70.902     -50.785     109.385
  P       72.408     -49.840     112.868
  C       72.883     -48.376     110.769
  O       73.128     -48.608     112.140
  O       73.043     -51.127     112.161
  O       72.571     -49.883     114.349
  H       73.037     -51.885     112.774
  H       73.439     -47.521     110.447
  H       71.838     -48.199     110.618
  H       73.185     -49.232     110.203

 6  7  8  9  10  11  12  13  14  15  26  29  33  34 0
 6-311+G(2d,p)
 ****
 36  38  39  40  41 0
 6-311+G(2d,p)
 ****
 1  2  3  4  5  16  17  18  19  20  21  22  23  24  25 0
 3-21G
 ****
 27  28  30  31  32  35  37  42  43  44  45  46  47 0
 3-21G
 ****
 48  49 0
 3-21G
 ****


