%nproc=1
%NoSave
%Mem=1900MB
#P OB98/GEN NMR

erre ene a

0 1
  C      466.792     257.766      19.248
  O      466.930     256.452      18.739
  H      467.555     258.410      18.805
  H      465.805     258.150      18.972
  H      466.884     257.773      20.338
  P      468.169     255.584      19.272
  C      467.460     253.361      18.131
  O      468.404     254.418      18.187
  C      467.294     252.859      16.696
  O      466.731     253.934      15.895
  C      468.608     252.415      16.033
  O      468.338     251.264      15.227
  C      468.948     253.584      15.118
  O      469.757     253.201      14.011
  C      467.554     254.072      14.725
  N      468.552     256.997      10.680
  C      468.320     255.672      10.802
  N      468.007     254.974      11.916
  C      467.877     255.800      12.971
  C      468.073     257.174      12.999
  C      468.445     257.774      11.787
  N      468.750     259.115      11.669
  N      467.895     257.653      14.284
  C      467.624     256.587      15.017
  N      467.602     255.445      14.264
  O      467.533     254.809      20.524
  O      469.383     256.361      19.651
  H      469.948     253.990      13.473
  H      467.617     255.359      21.324
  H      468.409     255.093       9.887
  H      467.467     256.585      16.087
  H      467.109     253.470      13.916
  H      469.483     254.347      15.689
  H      469.414     252.193      16.740
  H      466.564     252.042      16.692
  H      466.489     253.728      18.494
  H      469.114     259.432      10.788
  H      468.785     259.680      12.502
  H      467.791     252.545      18.785
  P      469.424     250.080      15.242
  C      469.325     248.891      17.562
  O      468.891     248.914      16.200
  O      470.639     250.710      16.065
  O      469.847     249.632      13.877
  H      471.486     250.365      15.736
  H      468.882     248.056      18.063
  H      469.027     249.797      18.047
  H      470.391     248.803      17.595

 6  7  8  9  10  11  12  13  14  15  25  28  32  33  34  35 0
 6-311+G(2d,p)
 ****
 36  39  40 0
 6-311+G(2d,p)
 ****
 1  2  3  4  5  16  17  18  19  20  21  22  23  24 0
 3-21G
 ****
 26  27  29  30  31  37  38  41  42  43  44  45  46  47 0
 3-21G
 ****
 48 0
 3-21G
 ****


