%nproc=1
%NoSave
%Mem=1900MB
#P OB98/GEN NMR

erre ene a

0 1
  C      640.370     -67.888     435.255
  O      640.204     -66.917     434.237
  H      641.218     -67.611     435.885
  H      639.468     -67.912     435.874
  H      640.526     -68.880     434.823
  P      641.268     -66.920     433.037
  C      640.017     -65.427     431.319
  O      641.080     -65.526     432.258
  C      639.829     -63.983     430.856
  O      639.065     -63.268     431.870
  C      641.147     -63.215     430.642
  O      640.995     -62.370     429.499
  C      641.253     -62.339     431.888
  O      642.030     -61.171     431.677
  C      639.777     -62.057     432.181
  N      639.854     -58.072     435.348
  C      639.817     -58.159     434.004
  N      639.739     -59.265     433.237
  C      639.650     -60.370     434.002
  C      639.680     -60.440     435.386
  C      639.809     -59.221     436.066
  N      639.934     -59.141     437.448
  N      639.620     -61.768     435.795
  C      639.582     -62.471     434.678
  N      639.600     -61.672     433.568
  O      640.649     -68.001     432.028
  O      642.672     -67.253     433.421
  H      641.633     -60.643     430.959
  H      640.962     -68.888     432.267
  H      639.849     -57.208     433.474
  H      639.568     -63.553     434.616
  H      639.371     -61.249     431.553
  H      641.709     -62.924     432.698
  H      642.024     -63.858     430.512
  H      639.227     -63.975     429.947
  H      639.089     -65.777     431.791
  H      640.123     -58.234     437.838
  H      640.001     -59.986     437.986
  H      640.234     -66.077     430.459
  P      642.299     -62.093     428.597
  C      642.242     -64.534     427.658
  O      642.300     -63.139     427.377
  O      643.494     -62.612     429.532
  O      642.471     -60.658     428.204
  H      644.295     -62.071     429.377
  H      642.251     -65.083     426.740
  H      641.343     -64.752     428.195
  H      643.088     -64.814     428.250

 6  7  8  9  10  11  12  13  14  15  25  28  32  33  34  35 0
 6-311+G(2d,p)
 ****
 36  39  40 0
 6-311+G(2d,p)
 ****
 1  2  3  4  5  16  17  18  19  20  21  22  23  24 0
 3-21G
 ****
 26  27  29  30  31  37  38  41  42  43  44  45  46  47 0
 3-21G
 ****
 48 0
 3-21G
 ****


