%nproc=1
%NoSave
%Mem=1900MB
#P OB98/GEN NMR

erre ene a

0 1
  C       41.600     -58.485     -70.898
  O       41.287     -59.719     -71.524
  P       41.401     -59.796     -73.122
  C       38.848     -60.134     -73.356
  O       39.975     -59.342     -73.703
  C       37.817     -60.135     -74.479
  O       36.731     -61.032     -74.119
  C       37.201     -58.758     -74.772
  O       37.123     -58.568     -76.191
  C       35.782     -58.886     -74.246
  O       34.887     -57.994     -74.901
  C       35.517     -60.366     -74.519
  N       30.725     -61.870     -75.036
  C       31.674     -61.602     -76.001
  N       31.268     -61.695     -77.286
  N       32.909     -61.270     -75.734
  C       33.183     -61.247     -74.406
  C       32.331     -61.500     -73.356
  C       30.951     -61.808     -73.667
  O       30.041     -61.966     -72.856
  N       32.978     -61.394     -72.152
  C       34.217     -61.072     -72.471
  N       34.379     -60.924     -73.825
  O       41.441     -61.372     -73.401
  O       42.587     -59.113     -73.710
  H       35.014     -57.114     -74.498
  H       42.243     -61.596     -73.910
  H       29.783     -62.104     -75.297
  H       35.016     -60.907     -71.759
  H       35.370     -60.538     -75.593
  H       35.774     -58.664     -73.174
  H       30.343     -61.981     -77.563
  H       37.737     -57.920     -74.316
  H       31.956     -61.525     -78.009
  H       38.286     -60.549     -75.381
  H       38.389     -59.729     -72.448
  H       39.183     -61.156     -73.153
  P       36.799     -57.074     -76.683
  C       34.595     -57.816     -77.854
  O       35.211     -57.011     -76.868
  O       37.360     -57.049     -78.181
  O       37.402     -56.010     -75.828
  H       37.575     -56.136     -78.449
  H       35.291     -58.538     -78.292
  H       34.209     -57.173     -78.648
  H       33.763     -58.360     -77.400
  H       41.481     -58.582     -69.839
  H       40.943     -57.723     -71.263
  H       42.612     -58.219     -71.120

 3  4  5  6  7  8  9  10  11  12  23  26  30  31  33  0
 6-311+G(2d,p)
 ****
 35  36  37  38 0
 6-311+G(2d,p)
 ****
 1  2  13  14  15  16  17  18  19  20  21  22  24  25  27  28  29 0
 3-21G
 ****
 32  34  39  40  41  42  43  44  45  46  47  48  49 0
 3-21G
 ****


