%nproc=1
%NoSave
%Mem=1900MB
#P OB98/GEN NMR

erre ene a

0 1
  C      367.966    -117.816    -118.536
  O      368.160    -118.858    -117.590
  P      367.518    -120.310    -117.824
  C      369.809    -121.375    -118.375
  O      368.510    -121.045    -118.851
  C      369.894    -122.871    -118.091
  O      369.644    -123.603    -119.308
  C      371.255    -123.345    -117.600
  O      371.447    -123.009    -116.235
  C      371.172    -124.836    -117.906
  O      370.410    -125.516    -116.891
  C      370.395    -124.844    -119.237
  N      371.261    -125.001    -120.400
  C      372.104    -126.114    -120.407
  O      372.099    -126.916    -119.475
  N      372.923    -126.315    -121.496
  C      372.916    -125.470    -122.479
  N      373.694    -125.756    -123.557
  C      372.076    -124.254    -122.489
  C      371.278    -124.088    -121.434
  O      366.086    -120.302    -118.242
  O      367.787    -121.094    -116.459
  H      370.560    -126.473    -117.025
  H      367.075    -120.970    -115.785
  H      372.118    -123.572    -123.330
  H      370.619    -123.231    -121.374
  H      369.655    -125.653    -119.237
  H      372.148    -125.322    -117.968
  H      372.060    -122.893    -118.194
  H      369.110    -123.131    -117.369
  H      374.106    -126.682    -123.585
  H      369.990    -120.826    -117.441
  H      373.528    -125.320    -124.459
  H      370.553    -121.067    -119.116
  P      372.623    -123.756    -115.442
  C      373.822    -121.516    -114.948
  O      373.903    -122.792    -115.547
  O      372.976    -124.993    -116.390
  O      372.258    -124.185    -114.056
  H      372.566    -125.817    -116.051
  H      374.831    -121.093    -114.895
  H      373.420    -121.583    -113.932
  H      373.196    -120.858    -115.553
  H      368.469    -116.933    -118.202
  H      366.920    -117.615    -118.635
  H      368.363    -118.116    -119.483

 3  4  5  6  7  8  9  10  11  12  13  23  27  28  29  30  32 0
 6-311+G(2d,p)
 ****
 34  35 0
 6-311+G(2d,p)
 ****
 1  2  14  15  16  17  18  19  20  21  22  24  25  26 0
 3-21G
 ****
 31  33  36  37  38  39  40  41  42  43  44  45  46 0
 3-21G
 ****


