%nproc=1
%NoSave
%Mem=1900MB
#P OB98/GEN NMR

erre ene a

0 1
  C       19.832    -238.889    -274.162
  O       19.876    -237.834    -273.193
  P       21.241    -236.982    -273.134
  C       23.625    -237.377    -272.180
  O       22.248    -237.726    -272.126
  C       24.368    -237.792    -270.907
  O       23.849    -237.039    -269.784
  C       24.246    -239.276    -270.546
  O       25.496    -239.720    -269.996
  C       23.227    -239.281    -269.423
  O       23.335    -240.441    -268.601
  C       23.577    -237.970    -268.726
  N       20.134    -239.169    -265.219
  C       21.146    -239.937    -265.761
  N       21.235    -241.212    -265.324
  N       21.992    -239.497    -266.653
  C       21.802    -238.191    -266.974
  C       20.847    -237.325    -266.499
  C       19.890    -237.841    -265.544
  O       18.939    -237.224    -265.065
  N       20.974    -236.077    -267.064
  C       21.998    -236.197    -267.885
  N       22.530    -237.462    -267.871
  O       20.810    -235.657    -272.347
  O       21.806    -236.658    -274.476
  H       22.691    -240.340    -267.875
  H       21.016    -234.870    -272.883
  H       19.497    -239.563    -264.550
  H       22.381    -235.412    -268.524
  H       24.490    -238.070    -268.123
  H       22.217    -239.256    -269.848
  H       20.657    -241.597    -264.594
  H       23.959    -239.925    -271.381
  H       21.998    -241.777    -265.676
  H       25.423    -237.514    -271.022
  H       23.720    -236.295    -272.316
  H       24.071    -237.862    -273.054
  P       26.253    -240.893    -270.786
  C       26.322    -243.481    -270.555
  O       25.821    -242.254    -270.061
  O       27.782    -240.702    -270.358
  O       26.065    -240.848    -272.266
  H       28.373    -241.045    -271.053
  H       27.126    -243.338    -271.281
  H       25.510    -244.031    -271.035
  H       26.703    -244.070    -269.717
  H       18.884    -239.382    -274.110
  H       20.612    -239.593    -273.958
  H       19.968    -238.480    -275.141

 3  4  5  6  7  8  9  10  11  12  23  26  30  31  33  0
 6-311+G(2d,p)
 ****
 35  36  37  38 0
 6-311+G(2d,p)
 ****
 1  2  13  14  15  16  17  18  19  20  21  22  24  25  27  28  29 0
 3-21G
 ****
 32  34  39  40  41  42  43  44  45  46  47  48  49 0
 3-21G
 ****


