%nproc=1
%NoSave
%Mem=1900MB
#P OB98/GEN NMR

erre ene a

0 1
  C     -797.693    1072.031     547.605
  O     -797.965    1070.859     546.817
  P     -798.267    1069.479     547.561
  C     -796.017    1068.426     546.823
  O     -797.445    1068.309     546.835
  C     -795.404    1067.420     545.850
  O     -795.787    1066.055     546.205
  C     -795.898    1067.587     544.410
  O     -795.463    1068.747     543.738
  C     -795.569    1066.258     543.794
  O     -794.218    1066.173     543.381
  C     -795.817    1065.282     544.981
  N     -797.086    1064.535     544.864
  C     -797.093    1063.500     543.956
  O     -796.124    1063.181     543.259
  N     -798.288    1062.811     543.859
  C     -799.430    1063.088     544.517
  O     -800.470    1062.466     544.380
  C     -799.363    1064.230     545.452
  C     -798.216    1064.908     545.570
  O     -799.719    1069.172     547.798
  O     -797.508    1069.626     548.955
  H     -794.066    1065.277     543.035
  H     -798.074    1069.260     549.653
  H     -798.309    1062.025     543.213
  H     -800.271    1064.483     545.994
  H     -798.150    1065.747     546.254
  H     -795.012    1064.539     545.051
  H     -796.197    1066.054     542.913
  H     -797.008    1067.665     544.455
  H     -794.313    1067.477     545.904
  H     -795.623    1068.261     547.844
  H     -795.743    1069.453     546.555
  P     -796.260    1070.138     543.766
  C     -798.439    1069.141     542.766
  O     -797.394    1070.098     542.641
  O     -795.448    1071.394     543.861
  O     -797.128    1069.982     545.116
  H     -797.222    1070.868     545.521
  H     -799.119    1069.235     541.918
  H     -799.016    1069.341     543.701
  H     -798.025    1068.127     542.776
  H     -797.513    1072.863     546.957
  H     -796.829    1071.859     548.213
  H     -798.534    1072.243     548.232

 3  4  5  6  7  8  9  10  11  12  13  23  28  29  30  31  32 0
 6-311+G(2d,p)
 ****
 33  34 0
 6-311+G(2d,p)
 ****
 1  2  14  15  16  17  18  19  20  21  22  24  25  26  27 0
 3-21G
 ****
 35  36  37  38  39  40  41  42  43  44  45 0
 3-21G
 ****


