%nproc=1
%NoSave
%Mem=1900MB
#P OB98/GEN NMR

erre ene a

0 1
  C     -444.413    -192.509      71.701
  O     -443.951    -192.277      73.018
  H     -443.711    -193.149      71.162
  H     -445.384    -193.011      71.752
  H     -444.534    -191.558      71.173
  P     -442.515    -191.580      73.168
  C     -442.942    -189.754      74.958
  O     -442.779    -190.047      73.576
  C     -444.253    -189.003      75.184
  O     -445.341    -189.835      74.707
  C     -444.539    -188.633      76.649
  O     -444.709    -187.221      76.781
  C     -445.870    -189.304      76.956
  O     -446.741    -188.500      77.745
  C     -446.454    -189.582      75.576
  N     -450.996    -191.201      77.218
  C     -450.523    -189.959      76.989
  N     -449.341    -189.597      76.451
  C     -448.626    -190.684      76.104
  C     -448.988    -192.014      76.251
  C     -450.233    -192.261      76.855
  N     -450.696    -193.525      77.136
  N     -447.986    -192.847      75.787
  C     -447.018    -192.037      75.410
  N     -447.353    -190.721      75.601
  O     -441.995    -191.480      71.653
  O     -441.546    -192.308      74.038
  H     -446.995    -187.737      77.194
  H     -441.077    -191.803      71.601
  H     -451.175    -189.140      77.290
  H     -446.049    -192.343      75.038
  H     -447.005    -188.720      75.181
  H     -445.676    -190.239      77.501
  H     -443.756    -188.979      77.331
  H     -444.243    -188.098      74.558
  H     -442.113    -189.123      75.299
  H     -451.542    -193.607      77.671
  H     -450.082    -194.312      76.969
  H     -442.928    -190.687      75.526
  P     -443.446    -186.389      77.331
  C     -443.660    -184.646      75.409
  O     -442.831    -185.570      76.094
  O     -442.354    -187.536      77.595
  O     -443.732    -185.598      78.562
  H     -441.735    -187.252      78.294
  H     -443.105    -184.187      74.618
  H     -443.996    -183.894      76.092
  H     -444.505    -185.160      75.000

 6  7  8  9  10  11  12  13  14  15  25  28  32  33  34  35 0
 6-311+G(2d,p)
 ****
 36  39  40 0
 6-311+G(2d,p)
 ****
 1  2  3  4  5  16  17  18  19  20  21  22  23  24 0
 3-21G
 ****
 26  27  29  30  31  37  38  41  42  43  44  45  46  47  48 0
 3-21G
 ****


