%nproc=1
%NoSave
%Mem=1900MB
#P OB98/GEN NMR

erre ene a

0 1
  C      -48.969      56.106      20.060
  O      -50.382      56.212      20.237
  P      -51.285      55.241      19.333
  C      -50.886      53.065      20.690
  O      -50.695      53.754      19.464
  C      -51.767      51.831      20.486
  O      -51.236      50.937      19.490
  C      -51.938      50.996      21.748
  O      -52.910      51.587      22.593
  C      -52.378      49.656      21.175
  O      -53.797      49.634      20.921
  C      -51.596      49.579      19.853
  N      -49.780      44.871      19.383
  C      -51.088      45.316      19.424
  N      -52.047      44.376      19.296
  N      -51.423      46.571      19.574
  C      -50.360      47.401      19.688
  C      -49.023      47.084      19.635
  C      -48.665      45.691      19.471
  O      -47.523      45.250      19.407
  N      -48.236      48.205      19.724
  C      -49.098      49.178      19.959
  N      -50.401      48.755      19.882
  O      -50.913      55.676      17.839
  O      -52.748      55.373      19.595
  H      -54.046      48.754      20.585
  H      -51.671      56.132      17.428
  H      -49.580      43.892      19.275
  H      -48.832      50.204      20.163
  H      -52.219      49.185      19.041
  H      -52.177      48.833      21.866
  H      -51.860      43.392      19.174
  H      -50.975      50.888      22.262
  H      -53.012      44.682      19.315
  H      -52.747      52.181      20.138
  H      -51.347      53.730      21.424
  H      -49.907      52.784      21.092
  P      -52.752      51.379      24.174
  C      -51.242      53.452      24.566
  O      -51.364      52.045      24.610
  O      -52.486      49.805      24.308
  O      -53.942      51.793      24.975
  H      -53.018      49.446      25.042
  H      -50.528      53.767      25.332
  H      -52.199      53.948      24.748
  H      -50.862      53.748      23.585
  H      -48.475      56.797      20.711
  H      -48.719      56.332      19.044
  H      -48.654      55.110      20.292

 3  4  5  6  7  8  9  10  11  12  23  26  30  31 0
 6-311+G(2d,p)
 ****
 33  35  36  37  38 0
 6-311+G(2d,p)
 ****
 1  2  13  14  15  16  17  18  19  20  21  22  24  25 0
 3-21G
 ****
 27  28  29  32  34  39  40  41  42  43  44  45  46  47  48  49 0
 3-21G
 ****


