%nproc=1
%NoSave
%Mem=1900MB
#P OB98/GEN NMR

erre ene a

0 1
  C     1111.372     282.267     378.920
  O     1111.604     282.854     380.179
  H     1110.366     282.534     378.590
  H     1111.446     281.181     378.986
  H     1112.083     282.641     378.173
  P     1113.109     282.760     380.743
  C     1113.882     285.150     380.061
  O     1113.547     284.266     381.118
  C     1112.896     286.332     380.028
  O     1111.548     285.844     379.791
  C     1112.844     287.137     381.321
  O     1113.873     288.083     381.394
  C     1111.485     287.807     381.158
  O     1111.608     288.925     380.234
  C     1110.647     286.697     380.552
  N     1106.238     285.880     382.931
  C     1106.571     286.833     381.982
  N     1105.607     287.708     381.643
  N     1107.773     286.923     381.441
  C     1108.634     285.994     381.886
  C     1108.413     284.993     382.818
  C     1107.107     284.898     383.405
  O     1106.743     284.066     384.224
  N     1109.533     284.241     383.014
  C     1110.450     284.783     382.208
  N     1109.948     285.871     381.530
  O     1113.982     282.437     379.432
  O     1113.337     281.738     381.805
  H     1112.096     288.598     379.464
  H     1114.708     281.846     379.678
  H     1105.321     285.852     383.324
  H     1111.464     284.441     382.115
  H     1109.893     287.070     379.844
  H     1111.107     288.230     382.091
  H     1104.676     287.717     382.076
  H     1112.809     286.466     382.207
  H     1105.829     288.408     380.937
  H     1113.174     286.971     379.180
  H     1113.834     284.609     379.112
  H     1114.907     285.513     380.206
  P     1114.534     288.368     382.857
  C     1116.318     286.480     383.114
  O     1116.061     287.848     382.751
  O     1113.815     287.281     383.774
  O     1114.355     289.755     383.354
  H     1113.839     287.581     384.712
  H     1117.361     286.270     382.998
  H     1115.751     285.830     382.480
  H     1116.033     286.322     384.133

 6  7  8  9  10  11  12  13  14  15  26  29  33  34 0
 6-311+G(2d,p)
 ****
 36  38  39  40  41 0
 6-311+G(2d,p)
 ****
 1  2  3  4  5  16  17  18  19  20  21  22  23  24  25 0
 3-21G
 ****
 27  28  30  31  32  35  37  42  43  44  45  46  47 0
 3-21G
 ****
 48  49 0
 3-21G
 ****


