%nproc=1
%NoSave
%Mem=1900MB
#P OB98/GEN NMR

erre ene a

0 1
  C      620.033    -357.710     730.281
  O      621.207    -357.061     729.800
  P      622.205    -357.900     728.849
  C      621.979    -356.114     727.005
  O      621.889    -357.504     727.333
  C      622.205    -355.945     725.475
  O      623.534    -356.337     725.102
  C      621.281    -356.782     724.634
  O      619.963    -356.241     724.617
  C      622.000    -356.773     723.289
  O      621.722    -355.560     722.570
  C      623.488    -356.782     723.724
  N      624.122    -358.083     723.566
  C      624.206    -358.554     722.250
  O      623.728    -357.908     721.317
  N      624.827    -359.775     722.027
  C      625.311    -360.440     723.025
  N      625.904    -361.628     722.759
  C      625.223    -359.982     724.428
  C      624.627    -358.794     724.612
  O      622.303    -359.362     729.144
  O      623.616    -357.151     729.109
  H      622.443    -355.444     721.928
  H      624.334    -357.819     728.986
  H      625.649    -360.552     725.236
  H      624.522    -358.385     725.619
  H      624.055    -356.045     723.139
  H      621.703    -357.609     722.661
  H      621.246    -357.813     725.017
  H      622.076    -354.885     725.243
  H      625.940    -361.917     721.792
  H      622.792    -355.656     727.550
  H      626.365    -362.202     723.461
  H      621.050    -355.623     727.304
  P      618.768    -357.182     725.145
  C      617.600    -355.472     726.716
  O      618.345    -356.673     726.598
  O      619.504    -358.589     725.418
  O      617.637    -357.351     724.183
  H      618.889    -359.320     725.223
  H      617.144    -355.444     727.720
  H      616.812    -355.421     725.965
  H      618.266    -354.601     726.597
  H      619.476    -357.032     730.893
  H      620.310    -358.567     730.859
  H      619.431    -358.018     729.452

 3  4  5  6  7  8  9  10  11  12  13  23  27  28  29  30  32 0
 6-311+G(2d,p)
 ****
 34  35 0
 6-311+G(2d,p)
 ****
 1  2  14  15  16  17  18  19  20  21  22  24  25  26 0
 3-21G
 ****
 31  33  36  37  38  39  40  41  42  43  44  45  46 0
 3-21G
 ****


