%nproc=1
%NoSave
%Mem=1900MB
#P OB98/GEN NMR

erre ene a

0 1
  C      392.424     515.786    1182.027
  O      392.076     516.647    1180.964
  H      393.514     515.747    1182.104
  H      392.045     514.780    1181.842
  H      392.023     516.176    1182.964
  P      390.510     516.816    1180.662
  C      389.937     518.376    1182.653
  O      389.845     517.064    1182.108
  C      388.675     519.178    1182.327
  O      388.673     519.597    1180.957
  C      387.379     518.407    1182.538
  O      386.989     518.449    1183.903
  C      386.427     519.202    1181.670
  O      385.984     520.378    1182.373
  C      387.310     519.614    1180.475
  N      384.138     517.559    1176.997
  C      383.892     518.211    1178.152
  N      384.792     518.686    1179.060
  C      386.049     518.438    1178.669
  C      386.447     517.770    1177.507
  C      385.424     517.337    1176.653
  N      385.673     516.665    1175.468
  N      387.818     517.697    1177.445
  C      388.243     518.347    1178.504
  N      387.205     518.776    1179.289
  O      389.882     515.750    1179.826
  O      390.473     518.283    1180.016
  H      386.779     520.905    1182.590
  H      391.087     518.879    1180.489
  H      382.843     518.379    1178.387
  H      389.288     518.548    1178.742
  H      387.098     520.645    1180.145
  H      385.529     518.642    1181.398
  H      387.445     517.374    1182.154
  H      388.697     520.093    1182.938
  H      390.815     518.905    1182.245
  H      384.888     516.216    1175.015
  H      386.632     516.376    1175.279
  H      390.069     518.283    1183.734
  P      386.088     517.288    1184.543
  C      388.069     515.643    1184.578
  O      386.760     515.910    1184.063
  O      384.624     517.427    1184.276
  O      386.424     517.334    1186.111
  H      385.757     516.852    1186.615
  H      388.418     514.706    1184.196
  H      388.030     515.601    1185.646
  H      388.737     516.423    1184.276

 6  7  8  9  10  11  12  13  14  15  25  28  32  33  34  35 0
 6-311+G(2d,p)
 ****
 36  39  40 0
 6-311+G(2d,p)
 ****
 1  2  3  4  5  16  17  18  19  20  21  22  23  24 0
 3-21G
 ****
 26  27  29  30  31  37  38  41  42  43  44  45  46  47 0
 3-21G
 ****
 48 0
 3-21G
 ****


