%nproc=1
%NoSave
%Mem=1900MB
#P OB98/GEN NMR

erre ene a

0 1
  C      293.818     393.719     179.335
  O      294.551     393.451     178.159
  H      294.525     393.862     180.158
  H      293.172     392.873     179.584
  H      293.222     394.628     179.221
  P      293.761     393.156     176.792
  C      294.850     390.901     176.215
  O      294.781     392.284     175.895
  C      296.297     390.457     176.425
  O      296.588     390.406     177.850
  C      296.610     389.071     175.841
  O      297.831     389.121     175.099
  C      296.799     388.196     177.072
  O      297.610     387.051     176.825
  C      297.371     389.218     178.064
  N      297.299     388.743     179.440
  C      298.112     389.403     180.365
  O      298.833     390.333     180.002
  N      298.134     388.963     181.664
  C      297.439     387.917     181.997
  N      297.525     387.515     183.294
  C      296.586     387.174     181.047
  C      296.560     387.636     179.796
  O      293.203     394.364     176.121
  O      292.642     392.083     177.189
  H      297.820     386.628     177.689
  H      291.916     392.116     176.523
  H      296.030     386.308     181.377
  H      295.964     387.156     179.027
  H      298.418     389.450     177.829
  H      295.820     387.847     177.421
  H      295.821     388.686     175.198
  H      296.961     391.223     176.003
  H      298.128     388.050     183.908
  H      294.389     390.331     175.401
  H      297.054     386.706     183.664
  H      294.285     390.731     177.138
  P      298.015     388.008     173.957
  C      300.576     387.674     174.231
  O      299.515     388.118     173.396
  O      297.112     388.556     172.757
  O      297.592     386.643     174.384
  H      296.325     387.989     172.648
  H      301.509     387.809     173.725
  H      300.441     386.637     174.459
  H      300.577     388.241     175.138

 6  7  8  9  10  11  12  13  14  15  16  26  30  31  32  33  35 0
 6-311+G(2d,p)
 ****
 37  38 0
 6-311+G(2d,p)
 ****
 1  2  3  4  5  17  18  19  20  21  22  23  24  25 0
 3-21G
 ****
 27  28  29  34  36  39  40  41  42  43  44  45  46 0
 3-21G
 ****


