%nproc=1
%NoSave
%Mem=1900MB
#P OB98/GEN NMR

erre ene a

0 1
  C      591.982     -54.963     546.913
  O      590.819     -55.362     546.214
  H      592.631     -54.420     546.225
  H      592.518     -55.839     547.286
  H      591.721     -54.302     547.745
  P      589.691     -56.187     547.006
  C      589.200     -57.224     544.680
  O      588.659     -56.644     545.856
  C      588.087     -57.565     543.698
  O      587.244     -58.623     544.210
  C      587.119     -56.428     543.395
  O      587.666     -55.419     542.560
  C      586.002     -57.203     542.718
  O      586.387     -57.543     541.382
  C      585.923     -58.456     543.622
  N      584.909     -58.335     544.673
  C      583.626     -58.799     544.353
  O      583.384     -59.273     543.248
  N      582.627     -58.683     545.298
  C      582.889     -58.136     546.441
  N      581.862     -58.042     547.332
  C      584.218     -57.611     546.811
  C      585.175     -57.752     545.891
  O      589.081     -55.494     548.183
  O      590.396     -57.575     547.373
  H      586.675     -56.718     540.945
  H      589.746     -58.122     547.877
  H      584.371     -57.138     547.768
  H      586.173     -57.380     546.082
  H      585.711     -59.352     543.024
  H      585.067     -56.639     542.649
  H      586.724     -55.986     544.329
  H      588.555     -57.948     542.780
  H      580.955     -58.405     547.055
  H      589.760     -58.120     544.967
  H      581.948     -57.562     548.222
  H      589.881     -56.524     544.193
  P      587.701     -53.920     543.148
  C      586.405     -53.141     541.012
  O      587.505     -52.945     541.886
  O      589.230     -53.730     543.560
  O      586.754     -53.663     544.277
  H      589.345     -53.876     544.519
  H      586.432     -52.407     540.234
  H      585.492     -53.045     541.561
  H      586.462     -54.119     540.581

 6  7  8  9  10  11  12  13  14  15  16  26  30  31  32  33  35 0
 6-311+G(2d,p)
 ****
 37  38 0
 6-311+G(2d,p)
 ****
 1  2  3  4  5  17  18  19  20  21  22  23  24  25 0
 3-21G
 ****
 27  28  29  34  36  39  40  41  42  43  44  45  46 0
 3-21G
 ****


