%nproc=1
%NoSave
%Mem=1900MB
#P OB98/GEN NMR

erre ene a

0 1
  C      -27.441     -66.889     -62.698
  O      -27.963     -65.742     -63.376
  P      -29.259     -65.955     -64.295
  C      -28.014     -67.119     -66.263
  O      -29.007     -67.217     -65.248
  C      -27.970     -68.410     -67.084
  O      -27.568     -69.530     -66.273
  C      -29.321     -68.800     -67.658
  O      -29.623     -68.018     -68.798
  C      -29.123     -70.280     -67.961
  O      -28.619     -70.488     -69.290
  C      -28.082     -70.715     -66.904
  N      -28.630     -71.640     -65.926
  C      -28.100     -72.935     -65.945
  O      -27.241     -73.241     -66.773
  N      -28.579     -73.852     -65.044
  C      -29.519     -73.512     -64.216
  N      -29.955     -74.467     -63.351
  C      -30.121     -72.165     -64.182
  C      -29.635     -71.287     -65.057
  O      -29.201     -64.713     -65.303
  O      -30.544     -65.984     -63.532
  H      -29.270     -70.066     -69.888
  H      -30.102     -64.428     -65.541
  H      -30.908     -71.932     -63.480
  H      -30.019     -70.273     -65.104
  H      -27.229     -71.205     -67.390
  H      -30.066     -70.831     -67.892
  H      -30.101     -68.679     -66.895
  H      -27.241     -68.281     -67.896
  H      -29.521     -75.380     -63.404
  H      -27.036     -66.929     -65.816
  H      -30.686     -74.314     -62.671
  H      -28.242     -66.256     -66.898
  P      -30.789     -66.930     -68.669
  C      -32.261     -69.032     -68.726
  O      -32.070     -67.750     -68.160
  O      -31.163     -66.656     -70.204
  O      -30.473     -65.669     -67.938
  H      -31.807     -65.928     -70.268
  H      -33.029     -69.557     -68.153
  H      -31.336     -69.612     -68.688
  H      -32.599     -68.934     -69.761
  H      -26.583     -66.605     -62.125
  H      -27.161     -67.631     -63.416
  H      -28.189     -67.289     -62.046

 3  4  5  6  7  8  9  10  11  12  13  21  23  27  28  29  30  32 0
 6-311+G(2d,p)
 ****
 34  35 0
 6-311+G(2d,p)
 ****
 1  2  14  15  16  17  18  19  20  22  24  25  26 0
 3-21G
 ****
 31  33  36  37  38  39  40  41  42  43  44  45  46 0
 3-21G
 ****


