%nproc=1
%NoSave
%Mem=1900MB
#P OB98/GEN NMR

erre ene a

0 1
  C     1033.668    -597.546    -139.679
  O     1034.859    -597.703    -138.922
  H     1032.850    -597.320    -138.995
  H     1033.434    -598.462    -140.215
  H     1033.781    -596.719    -140.388
  P     1036.219    -598.050    -139.701
  C     1038.506    -596.871    -139.932
  O     1037.122    -596.724    -139.628
  C     1039.274    -595.645    -139.455
  O     1038.938    -594.493    -140.252
  C     1038.982    -595.250    -138.004
  O     1039.734    -596.064    -137.110
  C     1039.423    -593.805    -138.011
  O     1040.867    -593.727    -137.971
  C     1038.906    -593.333    -139.387
  N     1035.888    -589.634    -137.653
  C     1037.228    -589.889    -137.399
  N     1037.824    -589.070    -136.501
  N     1037.893    -590.873    -137.924
  C     1037.150    -591.670    -138.732
  C     1035.813    -591.518    -139.060
  C     1035.093    -590.406    -138.500
  O     1033.914    -590.131    -138.724
  N     1035.384    -592.550    -139.863
  C     1036.461    -593.280    -140.046
  N     1037.548    -592.786    -139.377
  O     1036.059    -598.599    -141.095
  O     1036.976    -599.074    -138.734
  H     1041.142    -594.213    -137.180
  H     1036.754    -600.001    -138.962
  H     1035.415    -588.876    -137.186
  H     1036.498    -594.181    -140.674
  H     1039.551    -592.570    -139.836
  H     1039.043    -593.232    -137.165
  H     1037.298    -588.493    -135.860
  H     1037.914    -595.292    -137.775
  H     1038.792    -589.261    -136.264
  H     1040.343    -595.838    -139.597
  H     1038.600    -596.981    -141.016
  H     1038.905    -597.763    -139.441
  P     1039.135    -596.521    -135.695
  C     1040.105    -597.885    -133.720
  O     1040.219    -597.560    -135.100
  O     1037.727    -597.052    -135.758
  O     1039.311    -595.255    -134.741
  H     1038.549    -594.626    -134.770
  H     1040.876    -598.577    -133.452
  H     1039.148    -598.327    -133.536
  H     1040.205    -596.995    -133.135

 6  7  8  9  10  11  12  13  14  15  26  29  33  34 0
 6-311+G(2d,p)
 ****
 36  38  39  40  41 0
 6-311+G(2d,p)
 ****
 1  2  3  4  5  16  17  18  19  20  21  22  23  24  25 0
 3-21G
 ****
 27  28  30  31  32  35  37  42  43  44  45  46  47 0
 3-21G
 ****
 48  49 0
 3-21G
 ****


