%nproc=1
%NoSave
%Mem=1900MB
#P OB98/GEN NMR

erre ene a

0 1
  C     -319.208    -219.166    -895.810
  O     -319.750    -217.886    -896.080
  P     -320.489    -217.103    -894.890
  C     -318.369    -216.085    -893.770
  O     -319.554    -215.848    -894.520
  C     -317.510    -214.831    -893.690
  O     -316.976    -214.523    -894.990
  C     -318.262    -213.578    -893.260
  O     -318.425    -213.514    -891.840
  C     -317.322    -212.482    -893.730
  O     -316.253    -212.304    -892.780
  C     -316.777    -213.072    -895.060
  N     -316.349    -209.958    -899.010
  C     -315.447    -210.211    -898.010
  N     -314.256    -209.601    -898.060
  N     -315.700    -211.042    -897.010
  C     -316.918    -211.632    -897.090
  C     -317.906    -211.440    -898.060
  C     -317.624    -210.495    -899.130
  O     -318.414    -210.154    -900.000
  N     -319.003    -212.219    -897.810
  C     -318.665    -212.924    -896.730
  N     -317.433    -212.567    -896.250
  O     -320.278    -218.086    -893.630
  O     -321.926    -216.810    -895.130
  H     -316.672    -211.959    -891.970
  H     -320.992    -217.970    -892.970
  H     -316.094    -209.335    -899.770
  H     -319.297    -213.674    -896.270
  H     -315.701    -212.926    -895.160
  H     -317.831    -211.512    -893.860
  H     -313.962    -209.060    -898.890
  H     -319.230    -213.498    -893.760
  H     -313.571    -209.820    -897.370
  H     -316.663    -215.046    -893.000
  H     -317.778    -216.886    -894.270
  H     -318.661    -216.440    -892.770
  P     -319.913    -213.234    -891.270
  C     -320.478    -215.772    -891.390
  O     -320.377    -214.621    -890.590
  O     -320.776    -213.136    -892.620
  O     -320.005    -211.991    -890.440
  H     -321.570    -212.574    -892.480
  H     -319.693    -215.821    -892.150
  H     -321.457    -215.794    -891.880
  H     -320.386    -216.651    -890.750
  H     -318.752    -219.555    -896.697
  H     -319.989    -219.824    -895.493
  H     -318.473    -219.086    -895.037

 3  4  5  6  7  8  9  10  11  12  23  26  30  31  33  0
 6-311+G(2d,p)
 ****
 35  36  37  38 0
 6-311+G(2d,p)
 ****
 1  2  13  14  15  16  17  18  19  20  21  22  24  25  27  28  29 0
 3-21G
 ****
 32  34  39  40  41  42  43  44  45  46  47  48  49 0
 3-21G
 ****


