%nproc=1
%NoSave
%Mem=1900MB
#P OB98/GEN NMR

erre ene a

0 1
  C     -435.947     490.514    1075.800
  O     -435.678     491.117    1074.553
  H     -436.955     490.786    1076.118
  H     -435.231     490.853    1076.554
  H     -435.895     489.418    1075.707
  P     -434.198     490.927    1073.962
  C     -434.801     488.583    1072.991
  O     -434.026     489.327    1073.912
  C     -433.939     488.158    1071.798
  O     -432.799     487.396    1072.250
  C     -434.659     487.256    1070.777
  O     -435.530     487.957    1069.929
  C     -433.461     486.701    1070.043
  O     -432.923     487.707    1069.166
  C     -432.499     486.412    1071.217
  N     -432.626     485.049    1071.753
  C     -431.963     484.030    1071.052
  O     -431.317     484.303    1070.028
  N     -432.081     482.747    1071.489
  C     -432.776     482.471    1072.551
  N     -432.846     481.164    1072.940
  C     -433.483     483.510    1073.330
  C     -433.358     484.760    1072.883
  O     -433.259     491.342    1075.187
  O     -433.897     491.636    1072.681
  H     -432.159     487.317    1068.728
  H     -432.313     491.120    1074.988
  H     -434.057     483.252    1074.206
  H     -433.840     485.572    1073.411
  H     -431.435     486.565    1070.916
  H     -433.696     485.830    1069.424
  H     -435.183     486.429    1071.282
  H     -433.562     489.066    1071.314
  H     -432.412     480.472    1072.355
  H     -435.633     489.215    1072.647
  H     -433.491     480.864    1073.664
  H     -435.216     487.692    1073.465
  P     -436.968     487.294    1069.622
  C     -438.092     489.380    1070.723
  O     -438.012     487.953    1070.647
  O     -436.793     485.801    1070.184
  O     -437.384     487.319    1068.187
  H     -437.297     485.153    1069.647
  H     -438.829     489.658    1071.447
  H     -438.366     489.773    1069.766
  H     -437.141     489.776    1071.012

 6  7  8  9  10  11  12  13  14  15  16  26  30  31  32  33  35 0
 6-311+G(2d,p)
 ****
 37  38 0
 6-311+G(2d,p)
 ****
 1  2  3  4  5  17  18  19  20  21  22  23  24  25 0
 3-21G
 ****
 27  28  29  34  36  39  40  41  42  43  44  45  46 0
 3-21G
 ****


