%nproc=1
%NoSave
%Mem=1900MB
#P OB98/GEN NMR

erre ene a

0 1
  C      315.614     417.421     185.783
  O      315.067     417.889     184.570
  H      315.978     416.398     185.629
  H      314.847     417.399     186.564
  H      316.455     418.045     186.101
  P      314.457     419.373     184.529
  C      314.968     418.996     182.016
  O      314.129     419.626     182.972
  C      314.242     418.867     180.682
  O      313.571     420.101     180.330
  C      315.147     418.575     179.485
  O      315.631     417.243     179.451
  C      314.178     418.866     178.350
  O      313.246     417.784     178.221
  C      313.490     420.148     178.878
  N      314.109     421.373     178.378
  C      313.373     422.555     178.531
  O      312.266     422.545     179.076
  N      313.904     423.735     178.067
  C      315.053     423.729     177.455
  N      315.530     424.924     176.992
  C      315.849     422.504     177.241
  C      315.319     421.378     177.723
  O      315.272     420.437     185.193
  O      312.989     419.216     185.146
  H      313.764     416.994     177.963
  H      312.567     420.113     185.154
  H      316.779     422.542     176.702
  H      315.843     420.433     177.600
  H      312.422     420.157     178.610
  H      314.678     418.991     177.380
  H      315.971     419.297     179.437
  H      313.469     418.098     180.798
  H      314.959     425.743     177.153
  H      315.254     418.013     182.403
  H      316.368     424.998     176.449
  H      315.876     419.596     181.864
  P      317.166     417.040     179.005
  C      317.030     414.477     179.472
  O      317.304     415.515     178.547
  O      317.955     417.101     180.392
  O      317.676     418.036     178.012
  H      318.340     417.995     180.536
  H      317.172     413.529     178.997
  H      316.018     414.558     179.810
  H      317.693     414.560     180.308

 6  7  8  9  10  11  12  13  14  15  16  26  30  31  32  33  35 0
 6-311+G(2d,p)
 ****
 37  38 0
 6-311+G(2d,p)
 ****
 1  2  3  4  5  17  18  19  20  21  22  23  24  25 0
 3-21G
 ****
 27  28  29  34  36  39  40  41  42  43  44  45  46 0
 3-21G
 ****


