%nproc=1
%NoSave
%Mem=1900MB
#P OB98/GEN NMR

erre ene a

0 1
  C      -73.960     112.262       0.946
  O      -73.651     113.182      -0.085
  P      -73.293     112.575      -1.528
  C      -70.788     113.141      -1.088
  O      -71.745     112.165      -1.488
  C      -69.738     112.508      -0.177
  O      -70.383     111.759       0.874
  C      -68.813     111.518      -0.872
  O      -67.837     112.188      -1.652
  C      -68.257     110.764       0.333
  O      -67.225     111.538       0.965
  C      -69.488     110.676       1.251
  N      -69.523     105.744       2.628
  C      -68.654     106.746       2.887
  N      -68.702     108.028       2.465
  C      -69.787     108.237       1.705
  C      -70.748     107.309       1.337
  C      -70.590     106.006       1.834
  N      -71.476     104.985       1.562
  N      -71.704     107.886       0.526
  C      -71.333     109.146       0.418
  N      -70.190     109.411       1.125
  O      -73.311     113.862      -2.477
  O      -74.224     111.508      -2.012
  H      -67.007     111.098       1.811
  H      -73.632     113.631      -3.370
  H      -67.810     106.486       3.518
  H      -71.860     109.900      -0.151
  H      -69.234     110.809       2.308
  H      -67.825     109.791       0.071
  H      -69.388     110.832      -1.507
  H      -69.158     113.317       0.284
  H      -71.293     113.944      -0.542
  H      -71.208     104.050       1.834
  H      -72.186     105.147       0.861
  H      -70.325     113.568      -1.983
  P      -67.922     112.011      -3.247
  C      -66.030     110.296      -2.944
  O      -67.309     110.545      -3.499
  O      -66.745     112.972      -3.742
  O      -69.264     112.266      -3.836
  H      -65.917     112.819      -3.252
  H      -65.760     109.257      -3.144
  H      -66.048     110.459      -1.862
  H      -65.287     110.951      -3.410
  H      -74.178     112.796       1.847
  H      -73.124     111.614       1.108
  H      -74.812     111.680       0.662

 3  4  5  6  7  8  9  10  11  12  22  25  29  30  31  32 0
 6-311+G(2d,p)
 ****
 33  36  37 0
 6-311+G(2d,p)
 ****
 1  2  13  14  15  16  17  18  19  20  21  23  24  26 0
 3-21G
 ****
 27  28  34  35  38  39  40  41  42  43  44  45  46  47  48 0
 3-21G
 ****


