%nproc=1
%NoSave
%Mem=1900MB
#P OB98/GEN NMR

erre ene a

0 1
  C      -18.364     -40.263     -32.618
  O      -18.098     -40.527     -33.984
  P      -16.589     -40.408     -34.505
  C      -14.488     -41.899     -34.151
  O      -15.683     -41.372     -33.597
  C      -13.382     -41.936     -33.095
  O      -12.983     -40.570     -32.767
  C      -13.794     -42.619     -31.782
  O      -12.633     -43.277     -31.255
  C      -14.155     -41.440     -30.899
  O      -14.145     -41.754     -29.515
  C      -13.082     -40.437     -31.335
  N      -13.392     -39.064     -30.941
  C      -13.006     -38.663     -29.667
  O      -12.425     -39.390     -28.862
  N      -13.366     -37.391     -29.308
  C      -14.134     -36.536     -30.042
  O      -14.521     -35.455     -29.615
  C      -14.514     -37.014     -31.380
  C      -14.132     -38.235     -31.763
  O      -16.157     -38.938     -34.046
  O      -16.420     -40.606     -35.974
  H      -14.399     -40.948     -29.030
  H      -16.212     -38.317     -34.796
  H      -13.084     -37.079     -28.392
  H      -15.105     -36.352     -31.999
  H      -14.415     -38.621     -32.736
  H      -12.107     -40.723     -30.919
  H      -15.160     -41.087     -31.157
  H      -14.616     -43.330     -31.898
  H      -12.505     -42.434     -33.525
  H      -14.170     -41.267     -34.981
  H      -14.678     -42.902     -34.547
  P      -12.854     -44.618     -30.400
  C      -14.122     -46.862     -30.833
  O      -13.873     -45.531     -31.230
  O      -13.737     -44.056     -29.187
  O      -11.582     -45.268     -29.962
  H      -14.430     -43.443     -29.482
  H      -14.087     -46.971     -29.746
  H      -13.376     -47.520     -31.284
  H      -15.113     -47.157     -31.185
  H      -19.410     -40.384     -32.429
  H      -18.073     -39.260     -32.385
  H      -17.810     -40.946     -32.008

 3  4  5  6  7  8  9  10  11  12  13  23  28  29  30  31  32 0
 6-311+G(2d,p)
 ****
 33  34 0
 6-311+G(2d,p)
 ****
 1  2  14  15  16  17  18  19  20  21  22  24  25  26 0
 3-21G
 ****
 27  35  36  37  38  39  40  41  42  43  44  45 0
 3-21G
 ****


