%nproc=1
%NoSave
%Mem=1900MB
#P OB98/GEN NMR

erre ene a

0 1
  C     -141.706    -162.112    -190.904
  O     -140.611    -163.010    -190.705
  P     -140.888    -164.578    -190.944
  C     -140.674    -165.124    -188.393
  O     -141.482    -165.131    -189.557
  C     -141.497    -165.489    -187.150
  O     -142.415    -164.397    -186.837
  C     -142.326    -166.766    -187.293
  O     -142.301    -167.423    -186.013
  C     -143.720    -166.244    -187.590
  O     -144.727    -167.199    -187.271
  C     -143.735    -164.975    -186.729
  N     -144.769    -164.032    -187.130
  C     -145.975    -164.085    -186.439
  O     -146.215    -164.932    -185.579
  N     -146.920    -163.161    -186.801
  C     -146.806    -162.260    -187.824
  O     -147.680    -161.449    -188.108
  C     -145.551    -162.328    -188.599
  C     -144.612    -163.195    -188.220
  O     -139.401    -165.155    -190.997
  O     -141.722    -164.843    -192.154
  H     -138.790    -164.717    -190.384
  H     -145.602    -166.796    -187.421
  H     -147.789    -163.162    -186.291
  H     -145.452    -161.669    -189.449
  H     -143.690    -163.289    -188.780
  H     -143.891    -165.237    -185.673
  H     -143.804    -165.995    -188.652
  H     -141.939    -167.445    -188.059
  H     -140.806    -165.579    -186.302
  H     -140.245    -164.128    -188.250
  H     -139.840    -165.817    -188.531
  P     -141.270    -168.648    -185.807
  C     -142.998    -170.343    -186.813
  O     -141.700    -169.797    -186.838
  O     -141.800    -169.217    -184.397
  O     -139.830    -168.263    -185.773
  H     -142.767    -169.320    -184.366
  H     -143.154    -170.924    -187.726
  H     -143.760    -169.553    -186.766
  H     -143.108    -171.005    -185.951
  H     -141.385    -161.110    -190.713
  H     -142.501    -162.365    -190.235
  H     -142.051    -162.189    -191.914

 3  4  5  6  7  8  9  10  11  12  13  24  28  29  30  31  32 0
 6-311+G(2d,p)
 ****
 33  34 0
 6-311+G(2d,p)
 ****
 1  2  14  15  16  17  18  19  20  21  22  23  25  26  27 0
 3-21G
 ****
 35  36  37  38  39  40  41  42  43  44  45 0
 3-21G
 ****


