%nproc=1
%NoSave
%Mem=1900MB
#P OB98/GEN NMR

erre ene a

0 1
  C     -132.534     153.461     260.759
  O     -133.775     152.793     260.688
  H     -132.678     154.417     261.268
  H     -132.154     153.656     259.753
  H     -131.805     152.872     261.323
  P     -133.811     151.285     260.151
  C     -133.486     150.034     262.387
  O     -134.385     150.382     261.345
  C     -134.097     148.964     263.298
  O     -133.031     148.382     264.109
  C     -135.166     149.498     264.273
  O     -136.091     148.426     264.509
  C     -134.318     149.779     265.501
  O     -135.092     150.029     266.645
  C     -133.436     148.523     265.488
  N     -132.273     148.568     266.365
  C     -132.496     148.759     267.725
  O     -133.605     148.888     268.241
  N     -131.373     148.802     268.510
  C     -130.086     148.662     268.082
  O     -129.122     148.678     268.836
  C     -129.915     148.471     266.634
  C     -130.997     148.427     265.855
  O     -132.550     150.785     259.531
  O     -135.021     151.289     259.099
  H     -134.665     151.327     258.192
  H     -134.495     150.261     267.390
  H     -131.515     148.935     269.498
  H     -128.906     148.368     266.258
  H     -130.903     148.277     264.784
  H     -134.039     147.643     265.737
  H     -133.720     150.680     265.341
  H     -135.705     150.366     263.884
  H     -134.499     148.156     262.675
  H     -133.273     150.937     262.969
  H     -132.553     149.667     261.947
  P     -137.540     148.342     263.824
  C     -137.421     147.503     261.379
  O     -137.517     147.146     262.753
  O     -138.022     149.639     263.265
  O     -138.519     147.810     264.974
  H     -139.428     148.115     264.794
  H     -137.416     146.617     260.780
  H     -136.516     148.050     261.215
  H     -138.259     148.111     261.109

 6  7  8  9  10  11  12  13  14  15  16  27  31  32  33  34  35 0
 6-311+G(2d,p)
 ****
 36  37 0
 6-311+G(2d,p)
 ****
 1  2  3  4  5  17  18  19  20  21  22  23  24  25 0
 3-21G
 ****
 26  28  29  30  38  39  40  41  42  43  44  45 0
 3-21G
 ****


