%nproc=1
%NoSave
%Mem=1900MB
#P OB98/GEN NMR

erre ene a

0 1
  C     -717.976     106.810    -899.138
  O     -718.060     105.528    -898.508
  P     -719.453     104.980    -897.958
  C     -718.657     104.990    -895.498
  O     -719.571     105.523    -896.468
  C     -718.902     105.605    -894.138
  O     -718.689     107.034    -894.218
  C     -720.328     105.445    -893.568
  O     -720.567     104.201    -892.908
  C     -720.357     106.577    -892.548
  O     -719.657     106.159    -891.358
  C     -719.583     107.678    -893.258
  N     -722.505     111.869    -892.808
  C     -721.729     111.195    -891.918
  N     -720.997     110.080    -892.098
  C     -721.082     109.684    -893.378
  C     -721.826     110.250    -894.408
  C     -722.575     111.391    -894.078
  N     -723.360     112.076    -894.998
  N     -721.696     109.536    -895.588
  C     -720.862     108.567    -895.278
  N     -720.455     108.623    -893.968
  O     -719.636     103.488    -898.108
  O     -720.568     105.813    -898.758
  H     -719.770     106.867    -890.688
  H     -721.433     105.366    -898.688
  H     -721.689     111.614    -890.918
  H     -720.510     107.803    -895.978
  H     -718.950     108.263    -892.578
  H     -721.375     106.840    -892.248
  H     -721.084     105.644    -894.358
  H     -718.164     105.190    -893.428
  H     -717.635     105.245    -895.838
  H     -723.736     112.982    -894.708
  H     -723.261     111.839    -895.968
  H     -718.751     103.906    -895.478
  P     -722.097     103.836    -892.568
  C     -722.138     103.482    -889.975
  O     -722.325     104.342    -891.078
  O     -722.466     102.431    -892.838
  O     -722.919     104.899    -893.448
  H     -722.828     105.831    -893.188
  H     -722.192     104.059    -889.060
  H     -721.157     102.982    -890.018
  H     -722.929     102.722    -889.961
  H     -716.965     106.996    -899.436
  H     -718.290     107.567    -898.450
  H     -718.610     106.826    -900.000

 3  4  5  6  7  8  9  10  11  12  22  25  29  30  31  32 0
 6-311+G(2d,p)
 ****
 33  36  37 0
 6-311+G(2d,p)
 ****
 1  2  13  14  15  16  17  18  19  20  21  23  24  26 0
 3-21G
 ****
 27  28  34  35  38  39  40  41  42  43  44  45  46  47  48 0
 3-21G
 ****


