%nproc=1
%NoSave
%Mem=1900MB
#P OB98/GEN NMR

erre ene a

0 1
  C      762.418     280.495      71.355
  O      763.742     280.894      70.966
  P      764.807     281.192      72.121
  C      766.620     279.391      71.598
  O      765.576     279.815      72.461
  C      767.587     278.470      72.348
  O      768.268     279.166      73.421
  C      766.923     277.282      73.006
  O      766.687     276.216      72.088
  C      767.975     276.867      74.028
  O      769.007     276.102      73.376
  C      768.527     278.212      74.488
  N      769.230     279.169      79.467
  C      770.037     278.634      78.529
  N      769.773     278.387      77.228
  C      768.527     278.785      76.919
  C      767.588     279.353      77.769
  C      767.986     279.552      79.099
  N      767.156     280.102      80.052
  N      766.419     279.622      77.091
  C      766.644     279.236      75.857
  N      767.905     278.715      75.701
  O      763.895     281.418      73.417
  O      765.690     282.364      71.851
  H      768.609     275.263      73.090
  H      764.308     282.086      74.000
  H      771.031     278.350      78.866
  H      765.931     279.312      75.038
  H      769.604     278.188      74.662
  H      767.562     276.237      74.820
  H      765.989     277.573      73.516
  H      768.351     278.110      71.629
  H      767.157     280.253      71.198
  H      767.519     280.235      80.984
  H      766.238     280.401      79.783
  H      766.189     278.874      70.740
  P      765.169     275.868      71.719
  C      765.691     276.554      69.276
  O      764.834     276.681      70.379
  O      764.341     276.625      72.868
  O      764.870     274.407      71.679
  H      763.512     276.149      73.054
  H      765.175     276.922      68.382
  H      765.973     275.508      69.112
  H      766.591     277.160      69.422
  H      761.823     280.332      70.481
  H      761.974     281.265      71.950
  H      762.471     279.590      71.924

 3  4  5  6  7  8  9  10  11  12  22  25  29  30  31  32 0
 6-311+G(2d,p)
 ****
 33  36  37 0
 6-311+G(2d,p)
 ****
 1  2  13  14  15  16  17  18  19  20  21  23  24  26 0
 3-21G
 ****
 27  28  34  35  38  39  40  41  42  43  44  45  46  47  48 0
 3-21G
 ****


