%nproc=1
%NoSave
%Mem=1900MB
#P OB98/GEN NMR

erre ene a

0 1
  C       75.763     376.548    -685.011
  O       76.860     376.557    -684.124
  H       76.136     376.399    -686.027
  H       75.223     377.497    -684.967
  H       75.084     375.722    -684.767
  P       76.593     376.826    -682.566
  C       77.286     379.276    -682.977
  O       77.453     378.121    -682.162
  C       77.860     380.514    -682.263
  O       77.081     380.728    -681.057
  C       79.335     380.327    -681.854
  O       80.176     381.384    -682.313
  C       79.258     380.085    -680.348
  O       80.419     380.447    -679.630
  C       77.985     380.848    -679.941
  N       77.369     380.355    -678.714
  C       77.980     380.697    -677.507
  O       78.983     381.403    -677.396
  N       77.378     380.199    -676.382
  C       76.263     379.414    -676.342
  O       75.770     378.997    -675.296
  C       75.681     379.062    -677.646
  C       76.246     379.542    -678.759
  O       76.775     375.649    -681.665
  O       75.081     377.369    -682.523
  H       80.284     380.183    -678.700
  H       74.485     376.655    -682.222
  H       77.806     380.446    -675.501
  H       74.803     378.431    -677.651
  H       75.844     379.311    -679.736
  H       78.211     381.910    -679.799
  H       79.092     379.007    -680.179
  H       79.759     379.438    -682.339
  H       77.720     381.390    -682.905
  H       76.214     379.406    -683.163
  H       77.799     379.134    -683.934
  P       81.089     381.316    -683.620
  C       83.300     382.343    -682.645
  O       82.187     382.469    -683.533
  O       80.351     381.176    -684.911
  O       81.947     379.958    -683.405
  H       82.105     379.578    -684.297
  H       83.922     383.210    -682.728
  H       83.866     381.472    -682.903
  H       82.946     382.253    -681.639

 6  7  8  9  10  11  12  13  14  15  16  26  31  32  33  34  35 0
 6-311+G(2d,p)
 ****
 36  37 0
 6-311+G(2d,p)
 ****
 1  2  3  4  5  17  18  19  20  21  22  23  24  25 0
 3-21G
 ****
 27  28  29  30  38  39  40  41  42  43  44  45 0
 3-21G
 ****


