%nproc=1
%NoSave
%Mem=1900MB
#P OB98/GEN NMR

erre ene a

0 1
  C     -392.075    -250.444     909.328
  O     -392.393    -250.186     910.681
  H     -392.104    -251.526     909.163
  H     -391.076    -250.081     909.096
  H     -392.812    -249.974     908.668
  P     -392.364    -248.669     911.208
  C     -394.278    -249.025     912.905
  O     -392.908    -248.690     912.719
  C     -394.601    -249.119     914.398
  O     -393.838    -250.221     914.953
  C     -394.234    -247.834     915.162
  O     -395.306    -247.321     915.943
  C     -392.948    -248.232     915.899
  O     -392.695    -247.502     917.074
  C     -393.114    -249.750     916.103
  N     -391.853    -250.471     916.253
  C     -391.527    -250.938     917.522
  O     -392.229    -250.810     918.524
  N     -390.330    -251.607     917.620
  C     -389.448    -251.820     916.605
  O     -388.387    -252.426     916.750
  C     -389.835    -251.279     915.285
  C     -390.996    -250.633     915.180
  O     -393.025    -247.667     910.323
  O     -390.800    -248.354     911.397
  H     -393.488    -247.587     917.643
  H     -390.491    -247.776     910.663
  H     -390.100    -251.969     918.528
  H     -389.139    -251.414     914.466
  H     -391.305    -250.213     914.225
  H     -393.722    -249.950     916.992
  H     -392.100    -248.064     915.224
  H     -394.000    -247.020     914.468
  H     -395.666    -249.366     914.514
  H     -394.455    -249.987     912.417
  H     -394.915    -248.265     912.434
  P     -396.339    -246.206     915.448
  C     -398.505    -247.671     915.722
  O     -397.771    -246.506     916.091
  O     -396.307    -245.885     913.986
  O     -395.869    -244.873     916.241
  H     -396.073    -244.117     915.653
  H     -399.431    -247.693     916.257
  H     -397.934    -248.543     915.962
  H     -398.701    -247.651     914.670

 6  7  8  9  10  11  12  13  14  15  16  26  31  32  33  34  35 0
 6-311+G(2d,p)
 ****
 36  37 0
 6-311+G(2d,p)
 ****
 1  2  3  4  5  17  18  19  20  21  22  23  24  25 0
 3-21G
 ****
 27  28  29  30  38  39  40  41  42  43  44  45 0
 3-21G
 ****


