%nproc=1
%NoSave
%Mem=1900MB
#P OB98/GEN NMR

erre ene a

0 1
  C     -108.963    -270.840     142.848
  O     -108.692    -269.433     142.791
  P     -107.581    -268.820     141.813
  C     -108.873    -267.583     139.957
  O     -108.146    -267.458     141.176
  C     -108.545    -266.450     138.981
  O     -109.240    -266.632     137.732
  C     -108.927    -265.059     139.478
  O     -107.973    -264.580     140.406
  C     -108.996    -264.283     138.166
  O     -107.680    -263.890     137.745
  C     -109.574    -265.333     137.207
  N     -113.298    -262.603     135.011
  C     -111.954    -262.493     134.969
  N     -111.026    -263.255     135.586
  C     -111.615    -264.239     136.289
  C     -112.976    -264.473     136.426
  C     -113.841    -263.600     135.747
  N     -115.210    -263.706     135.803
  N     -113.202    -265.557     137.247
  C     -112.000    -265.982     137.585
  N     -111.009    -265.217     137.029
  O     -107.045    -269.788     140.805
  O     -106.414    -268.315     142.787
  H     -107.085    -264.648     137.896
  H     -105.559    -268.342     142.319
  H     -111.568    -261.679     134.358
  H     -111.794    -266.832     138.220
  H     -109.116    -265.269     136.213
  H     -109.600    -263.374     138.243
  H     -109.922    -265.084     139.936
  H     -107.470    -266.496     138.766
  H     -109.944    -267.570     140.190
  H     -115.763    -263.020     135.316
  H     -115.625    -264.418     136.388
  H     -108.626    -268.551     139.502
  P     -108.449    -263.981     141.812
  C     -109.072    -266.213     142.917
  O     -108.184    -265.109     142.921
  O     -109.816    -263.383     141.828
  O     -107.331    -262.885     142.156
  H     -107.733    -262.174     142.692
  H     -110.000    -265.936     143.418
  H     -108.603    -267.038     143.456
  H     -109.287    -266.536     141.892
  H     -109.736    -271.026     143.564
  H     -108.076    -271.363     143.138
  H     -109.279    -271.182     141.885

 3  4  5  6  7  8  9  10  11  12  22  25  29  30  31  32 0
 6-311+G(2d,p)
 ****
 33  36  37 0
 6-311+G(2d,p)
 ****
 1  2  13  14  15  16  17  18  19  20  21  23  24  26 0
 3-21G
 ****
 27  28  34  35  38  39  40  41  42  43  44  45  46  47  48 0
 3-21G
 ****


