%nproc=1
%NoSave
%Mem=1900MB
#P OB98/GEN NMR

erre ene a

0 1
  C     -153.986     -53.818      68.202
  O     -153.738     -55.209      68.134
  H     -153.981     -53.512      69.251
  H     -154.963     -53.586      67.771
  H     -153.204     -53.270      67.670
  P     -153.759     -55.878      66.676
  C     -155.603     -57.091      65.307
  O     -155.301     -56.134      66.311
  C     -157.118     -57.238      65.181
  O     -157.697     -55.985      64.749
  C     -157.557     -58.265      64.146
  O     -157.452     -59.594      64.627
  C     -158.995     -57.836      63.908
  O     -159.881     -58.387      64.898
  C     -158.910     -56.300      64.032
  N     -158.963     -55.637      62.733
  C     -159.705     -54.462      62.687
  O     -160.288     -53.992      63.664
  N     -159.791     -53.855      61.462
  C     -159.250     -54.320      60.299
  O     -159.425     -53.768      59.221
  C     -158.464     -55.562      60.412
  C     -158.364     -56.159      61.602
  O     -153.181     -57.346      66.944
  O     -152.981     -55.146      65.633
  H     -152.251     -57.394      66.654
  H     -159.873     -59.356      64.758
  H     -160.334     -53.010      61.408
  H     -158.015     -55.956      59.509
  H     -157.808     -57.085      61.706
  H     -159.741     -55.920      64.641
  H     -159.361     -58.174      62.939
  H     -156.991     -58.134      63.214
  H     -157.527     -57.486      66.169
  H     -155.173     -58.059      65.584
  H     -155.160     -56.768      64.359
  P     -157.602     -60.802      63.583
  C     -159.619     -61.689      62.154
  O     -159.171     -60.932      63.262
  O     -157.291     -62.061      64.520
  O     -156.725     -60.671      62.385
  H     -157.621     -61.951      65.428
  H     -160.687     -61.655      62.108
  H     -159.298     -62.704      62.262
  H     -159.210     -61.280      61.254

 6  7  8  9  10  11  12  13  14  15  16  27  31  32  33  34  35 0
 6-311+G(2d,p)
 ****
 36  37 0
 6-311+G(2d,p)
 ****
 1  2  3  4  5  17  18  19  20  21  22  23  24  25 0
 3-21G
 ****
 26  28  29  30  38  39  40  41  42  43  44  45 0
 3-21G
 ****


