%nproc=1
%NoSave
%Mem=1900MB
#P OB98/GEN NMR

erre ene a

0 1
  C     -426.709     -85.417     -45.914
  O     -426.593     -86.533     -46.795
  P     -426.535     -87.997     -46.139
  C     -428.283     -89.115     -47.706
  O     -426.939     -89.083     -47.258
  C     -428.432     -89.985     -48.960
  O     -427.810     -89.344     -50.110
  C     -427.800     -91.373     -48.828
  O     -428.539     -92.289     -49.636
  C     -426.429     -91.177     -49.448
  O     -425.827     -92.418     -49.820
  C     -426.789     -90.242     -50.605
  N     -422.050     -90.658     -52.293
  C     -422.923     -91.633     -51.847
  N     -422.482     -92.905     -51.887
  N     -424.125     -91.375     -51.404
  C     -424.441     -90.057     -51.453
  C     -423.666     -88.997     -51.864
  C     -422.326     -89.300     -52.340
  O     -421.504     -88.474     -52.734
  N     -424.338     -87.806     -51.743
  C     -425.507     -88.143     -51.252
  N     -425.642     -89.494     -51.091
  O     -427.797     -87.995     -45.157
  O     -425.268     -88.282     -45.401
  H     -425.155     -92.225     -50.513
  H     -427.500     -87.958     -44.230
  H     -421.127     -90.909     -52.620
  H     -426.304     -87.454     -50.991
  H     -427.205     -90.790     -51.465
  H     -425.764     -90.674     -48.733
  H     -421.584     -93.179     -52.270
  H     -427.746     -91.757     -47.803
  H     -423.117     -93.642     -51.608
  H     -429.501     -90.089     -49.190
  H     -428.629     -88.103     -47.928
  H     -428.918     -89.480     -46.892
  P     -429.633     -93.200     -48.892
  C     -431.402     -92.906     -50.778
  O     -430.580     -93.791     -50.045
  O     -430.571     -92.132     -48.155
  O     -429.072     -94.209     -47.945
  H     -431.007     -92.540     -47.380
  H     -430.956     -92.740     -51.759
  H     -431.526     -91.942     -50.265
  H     -432.387     -93.361     -50.906
  H     -426.736     -84.513     -46.485
  H     -425.868     -85.396     -45.253
  H     -427.610     -85.505     -45.343

 3  4  5  6  7  8  9  10  11  12  23  26  30  31 0
 6-311+G(2d,p)
 ****
 33  35  36  37  38 0
 6-311+G(2d,p)
 ****
 1  2  13  14  15  16  17  18  19  20  21  22  24  25 0
 3-21G
 ****
 27  28  29  32  34  39  40  41  42  43  44  45  46  47  48  49 0
 3-21G
 ****


