%nproc=1
%NoSave
%Mem=1900MB
#P OB98/GEN NMR

erre ene a

0 1
  C     -341.066     351.579     464.722
  O     -342.108     351.393     463.788
  H     -341.451     352.169     465.555
  H     -340.241     352.121     464.256
  H     -340.709     350.620     465.105
  P     -341.925     350.302     462.632
  C     -343.007     351.122     460.433
  O     -343.195     350.429     461.657
  C     -344.259     351.925     460.061
  O     -345.394     351.018     459.989
  C     -344.590     352.972     461.130
  O     -345.289     354.091     460.582
  C     -345.527     352.220     462.057
  O     -346.372     353.082     462.826
  C     -346.287     351.333     461.071
  N     -349.635     347.492     460.772
  C     -349.589     348.674     460.059
  N     -350.575     348.850     459.130
  N     -348.691     349.603     460.239
  C     -347.823     349.321     461.241
  C     -347.772     348.200     462.035
  C     -348.757     347.167     461.799
  O     -348.856     346.109     462.422
  N     -346.755     348.275     462.953
  C     -346.187     349.443     462.714
  N     -346.782     350.101     461.672
  O     -342.199     348.911     463.376
  O     -340.592     350.304     461.944
  H     -346.872     353.639     462.198
  H     -341.785     348.177     462.888
  H     -350.334     346.801     460.572
  H     -345.339     349.844     463.255
  H     -347.146     351.865     460.653
  H     -344.924     351.650     462.770
  H     -351.385     348.256     459.103
  H     -343.711     353.324     461.662
  H     -350.736     349.818     458.831
  H     -344.144     352.364     459.062
  H     -342.787     350.368     459.669
  H     -342.133     351.779     460.500
  P     -344.656     355.553     460.777
  C     -346.744     357.157     461.032
  O     -345.675     356.665     460.249
  O     -343.463     355.599     459.717
  O     -344.179     355.840     462.171
  H     -342.601     355.673     460.174
  H     -347.288     357.890     460.473
  H     -346.357     357.603     461.924
  H     -347.397     356.350     461.292

 6  7  8  9  10  11  12  13  14  15  26  29  33  34 0
 6-311+G(2d,p)
 ****
 36  38  39  40  41 0
 6-311+G(2d,p)
 ****
 1  2  3  4  5  16  17  18  19  20  21  22  23  24  25 0
 3-21G
 ****
 27  28  30  31  32  35  37  42  43  44  45  46  47 0
 3-21G
 ****
 48  49 0
 3-21G
 ****


