%nproc=1
%NoSave
%Mem=1900MB
#P OB98/GEN NMR

erre ene a

0 1
  C      921.841    -390.176    -396.686
  O      921.124    -389.052    -397.192
  P      921.457    -388.591    -398.696
  C      919.089    -387.916    -399.630
  O      920.353    -387.513    -399.126
  C      918.095    -388.224    -398.484
  O      917.852    -386.984    -397.748
  C      916.732    -388.709    -398.930
  O      916.082    -389.355    -397.829
  C      916.020    -387.413    -399.251
  O      914.603    -387.575    -399.283
  C      916.554    -386.467    -398.147
  N      916.687    -385.073    -398.581
  C      915.521    -384.324    -398.831
  O      914.367    -384.801    -398.719
  N      915.686    -383.054    -399.275
  C      916.881    -382.416    -399.435
  O      916.979    -381.301    -399.909
  C      918.073    -383.170    -399.028
  C      917.920    -384.440    -398.624
  O      921.106    -389.873    -399.583
  O      922.861    -388.138    -398.888
  H      914.353    -388.106    -398.505
  H      921.917    -390.317    -399.860
  H      914.851    -382.547    -399.516
  H      919.035    -382.682    -399.072
  H      918.790    -385.029    -398.328
  H      915.900    -386.472    -397.263
  H      916.326    -387.058    -400.228
  H      916.734    -389.389    -399.788
  H      918.570    -388.930    -397.792
  H      919.214    -388.781    -400.269
  H      918.667    -387.124    -400.264
  P      915.895    -390.952    -397.855
  C      915.862    -391.265    -395.313
  O      915.123    -391.328    -396.521
  O      917.137    -391.743    -398.155
  O      914.780    -391.138    -399.000
  H      914.803    -392.077    -399.319
  H      915.165    -391.045    -394.493
  H      916.620    -390.486    -395.355
  H      916.341    -392.224    -395.122
  H      921.528    -390.377    -395.683
  H      922.890    -389.964    -396.696
  H      921.644    -391.030    -397.299

 3  4  5  6  7  8  9  10  11  12  13  23  28  29  30  31  32 0
 6-311+G(2d,p)
 ****
 33  34 0
 6-311+G(2d,p)
 ****
 1  2  14  15  16  17  18  19  20  21  22  24  25  26  27 0
 3-21G
 ****
 35  36  37  38  39  40  41  42  43  44  45 0
 3-21G
 ****


