%nproc=1
%NoSave
%Mem=1900MB
#P OB98/GEN NMR

erre ene a

0 1
  C       34.237    -250.372    -825.815
  O       34.345    -249.659    -827.042
  P       35.661    -249.916    -827.927
  C       36.266    -249.519    -830.426
  O       35.246    -249.689    -829.460
  C       35.866    -250.203    -831.747
  O       35.775    -251.628    -831.544
  C       34.512    -249.780    -832.289
  O       34.584    -248.500    -832.897
  C       34.241    -250.932    -833.252
  O       34.975    -250.745    -834.472
  C       34.799    -252.135    -832.485
  N       30.876    -255.417    -832.886
  C       31.673    -254.854    -833.811
  N       32.690    -253.973    -833.625
  C       32.835    -253.692    -832.327
  C       32.077    -254.161    -831.269
  C       31.056    -255.078    -831.576
  N       30.240    -255.643    -830.638
  N       32.508    -253.636    -830.068
  C       33.518    -252.853    -830.401
  N       33.769    -252.867    -831.752
  O       35.862    -251.500    -827.832
  O       36.880    -249.166    -827.476
  H       34.627    -249.944    -834.909
  H       36.809    -251.736    -827.836
  H       31.492    -255.148    -834.843
  H       34.102    -252.258    -829.700
  H       35.303    -252.863    -833.133
  H       33.180    -251.027    -833.523
  H       33.760    -249.773    -831.492
  H       36.663    -250.014    -832.475
  H       37.192    -249.965    -830.066
  H       29.431    -256.169    -830.954
  H       30.278    -255.281    -829.687
  H       36.435    -248.449    -830.585
  P       33.192    -247.816    -833.323
  C       32.514    -245.331    -833.352
  O       33.309    -246.325    -832.723
  O       32.164    -248.520    -832.316
  O       32.864    -247.907    -834.766
  H       32.487    -248.505    -831.399
  H       32.649    -244.390    -832.824
  H       31.460    -245.613    -833.325
  H       32.843    -245.202    -834.388
  H       33.320    -250.110    -825.330
  H       35.061    -250.119    -825.182
  H       34.248    -251.424    -826.011

 3  4  5  6  7  8  9  10  11  12  22  25  29  30  31  32 0
 6-311+G(2d,p)
 ****
 33  36  37 0
 6-311+G(2d,p)
 ****
 1  2  13  14  15  16  17  18  19  20  21  23  24  26 0
 3-21G
 ****
 27  28  34  35  38  39  40  41  42  43  44  45  46  47  48 0
 3-21G
 ****


