%nproc=1
%NoSave
%Mem=1900MB
#P OB98/GEN NMR

erre ene a

0 1
  C     -105.000      30.654     461.383
  O     -105.753      29.855     462.291
  P     -107.102      29.182     461.738
  C     -106.981      26.794     462.758
  O     -107.525      28.105     462.855
  C     -107.263      25.999     464.031
  O     -106.315      26.375     465.061
  C     -108.635      26.241     464.635
  O     -109.647      25.478     463.978
  C     -108.422      25.752     466.066
  O     -108.538      24.311     466.110
  C     -106.968      26.177     466.343
  N     -108.121      28.465     470.719
  C     -108.388      27.176     470.292
  N     -109.038      26.381     471.170
  N     -108.056      26.720     469.114
  C     -107.382      27.613     468.357
  C     -107.054      28.921     468.666
  C     -107.463      29.427     469.954
  O     -107.316      30.585     470.358
  N     -106.339      29.505     467.648
  C     -106.214      28.557     466.739
  N     -106.849      27.403     467.116
  O     -106.588      28.272     460.523
  O     -108.158      30.138     461.307
  H     -109.469      24.096     465.870
  H     -107.310      28.133     459.881
  H     -108.377      28.765     471.647
  H     -105.675      28.668     465.813
  H     -106.419      25.378     466.860
  H     -109.154      26.155     466.768
  H     -109.200      26.630     472.134
  H     -108.881      27.310     464.645
  H     -109.211      25.415     470.892
  H     -107.110      24.928     463.811
  H     -105.893      26.869     462.619
  H     -107.407      26.287     461.886
  P     -111.066      26.207     463.760
  C     -111.191      25.492     461.261
  O     -111.757      25.410     462.565
  O     -110.661      27.610     463.105
  O     -111.868      26.374     465.006
  H     -111.339      28.281     463.297
  H     -110.096      25.528     461.308
  H     -111.566      26.386     460.755
  H     -111.481      24.605     460.681
  H     -104.133      31.037     461.880
  H     -105.603      31.468     461.039
  H     -104.698      30.057     460.548

 3  4  5  6  7  8  9  10  11  12  23  26  30  31  33  0
 6-311+G(2d,p)
 ****
 35  36  37  38 0
 6-311+G(2d,p)
 ****
 1  2  13  14  15  16  17  18  19  20  21  22  24  25  27  28  29 0
 3-21G
 ****
 32  34  39  40  41  42  43  44  45  46  47  48  49 0
 3-21G
 ****


