%nproc=1
%NoSave
%Mem=1900MB
#P OB98/GEN NMR

erre ene a

0 1
  C      186.344    -153.746      45.930
  O      186.822    -155.068      45.763
  P      187.591    -155.744      46.996
  C      185.347    -156.658      47.958
  O      186.531    -155.906      48.186
  C      185.520    -158.073      48.513
  O      186.519    -158.792      47.756
  C      186.000    -158.106      49.958
  O      184.939    -157.854      50.863
  C      186.565    -159.516      50.062
  O      185.524    -160.470      50.327
  C      187.153    -159.728      48.653
  N      188.607    -159.604      48.627
  C      189.321    -160.783      48.821
  O      188.778    -161.868      49.028
  N      190.684    -160.665      48.812
  C      191.388    -159.503      48.686
  O      192.610    -159.453      48.742
  C      190.579    -158.284      48.513
  C      189.248    -158.389      48.498
  O      188.572    -154.591      47.514
  O      188.332    -156.992      46.655
  H      185.950    -161.349      50.345
  H      189.410    -154.984      47.827
  H      191.220    -161.509      48.926
  H      191.104    -157.344      48.410
  H      188.635    -157.502      48.385
  H      186.888    -160.726      48.281
  H      187.296    -159.609      50.870
  H      186.813    -157.384      50.099
  H      184.566    -158.605      48.412
  H      185.148    -156.704      46.885
  H      184.505    -156.156      48.444
  P      185.336    -157.276      52.308
  C      184.694    -154.818      51.698
  O      185.704    -155.738      52.053
  O      186.740    -158.008      52.546
  O      184.304    -157.549      53.349
  H      187.224    -158.151      51.716
  H      183.750    -155.047      52.198
  H      184.549    -154.840      50.616
  H      185.014    -153.814      51.991
  H      185.856    -153.427      45.033
  H      187.166    -153.094      46.140
  H      185.649    -153.718      46.743

 3  4  5  6  7  8  9  10  11  12  13  23  28  29  30  31  32 0
 6-311+G(2d,p)
 ****
 33  34 0
 6-311+G(2d,p)
 ****
 1  2  14  15  16  17  18  19  20  21  22  24  25  26 0
 3-21G
 ****
 27  35  36  37  38  39  40  41  42  43  44  45 0
 3-21G
 ****


