%nproc=1
%NoSave
%Mem=1900MB
#P OB98/GEN NMR

erre ene a

0 1
  C     -332.444      70.230      -0.162
  O     -332.572      68.987       0.490
  P     -333.918      68.135       0.524
  C     -334.748      69.407       2.656
  O     -335.029      68.969       1.329
  C     -335.877      69.008       3.619
  O     -337.085      69.721       3.236
  C     -336.192      67.505       3.522
  O     -336.423      66.876       4.777
  C     -337.324      67.462       2.499
  O     -338.096      66.267       2.559
  C     -338.067      68.760       2.810
  N     -342.290      68.491      -0.014
  C     -342.011      67.879       1.198
  N     -342.899      66.958       1.613
  N     -340.945      68.145       1.908
  C     -340.097      69.011       1.313
  C     -340.263      69.675       0.117
  C     -341.456      69.402      -0.646
  O     -341.689      69.821      -1.778
  N     -339.158      70.425      -0.206
  C     -338.311      70.186       0.773
  N     -338.821      69.316       1.702
  O     -333.787      66.679       0.816
  O     -334.437      68.281      -1.001
  H     -338.616      66.215       1.738
  H     -334.884      67.444      -1.234
  H     -343.094      68.186      -0.556
  H     -337.309      70.600       0.845
  H     -338.785      68.621       3.622
  H     -336.871      67.495       1.508
  H     -343.652      66.627       1.020
  H     -335.333      66.955       3.124
  H     -342.599      66.331       2.356
  H     -335.608      69.317       4.634
  H     -334.664      70.500       2.609
  H     -333.786      69.012       2.997
  P     -335.907      65.461       5.304
  C     -338.280      64.466       5.308
  O     -336.947      64.334       4.842
  O     -336.119      65.505       6.886
  O     -334.481      65.157       4.982
  H     -335.356      65.069       7.330
  H     -338.804      63.530       5.158
  H     -338.784      65.253       4.733
  H     -338.295      64.726       6.371
  H     -331.446      70.596      -0.039
  H     -333.135      70.928       0.262
  H     -332.654      70.109      -1.204

 3  4  5  6  7  8  9  10  11  12  23  26  30  31 0
 6-311+G(2d,p)
 ****
 33  35  36  37  38 0
 6-311+G(2d,p)
 ****
 1  2  13  14  15  16  17  18  19  20  21  22  24  25 0
 3-21G
 ****
 27  28  29  32  34  39  40  41  42  43  44  45  46  47  48  49 0
 3-21G
 ****


