%nproc=1
%NoSave
%Mem=1900MB
#P OB98/GEN NMR

erre ene a

0 1
  C     -889.190    -753.069    -890.370
  O     -889.190    -753.727    -891.670
  P     -890.580    -754.210    -892.270
  C     -890.500    -753.213    -894.620
  O     -891.140    -753.183    -893.360
  C     -891.130    -752.131    -895.610
  O     -892.530    -752.443    -895.800
  C     -891.040    -750.724    -895.070
  O     -890.860    -749.816    -896.180
  C     -892.420    -750.466    -894.440
  O     -892.720    -749.093    -894.270
  C     -893.260    -751.265    -895.530
  N     -898.180    -749.808    -895.270
  C     -897.090    -749.233    -895.830
  N     -895.810    -749.687    -895.860
  C     -895.720    -750.844    -895.130
  C     -896.720    -751.536    -894.490
  C     -898.010    -750.969    -894.520
  N     -899.100    -751.474    -893.920
  N     -896.230    -752.655    -893.840
  C     -894.960    -752.652    -894.170
  N     -894.590    -751.623    -894.980
  O     -891.640    -754.010    -891.000
  O     -890.600    -755.654    -892.670
  H     -893.490    -748.998    -893.660
  H     -891.820    -754.851    -890.570
  H     -897.280    -748.312    -896.410
  H     -894.230    -753.417    -893.760
  H     -893.460    -750.654    -896.390
  H     -892.510    -750.944    -893.450
  H     -890.220    -750.518    -894.320
  H     -890.550    -752.212    -896.570
  H     -890.600    -754.227    -895.050
  H     -900.000    -751.025    -893.960
  H     -899.030    -752.337    -893.360
  H     -889.430    -753.048    -894.500
  P     -889.350    -749.479    -896.620
  C     -889.790    -749.951    -899.190
  O     -889.090    -750.344    -898.010
  O     -888.470    -750.309    -895.540
  O     -889.000    -748.038    -896.660
  H     -887.590    -749.823    -895.420
  H     -889.100    -750.048    -900.000
  H     -890.140    -748.942    -899.120
  H     -890.640    -750.645    -899.380
  H     -888.188    -752.805    -890.104
  H     -889.591    -753.734    -889.634
  H     -889.791    -752.185    -890.418

 3  4  5  6  7  8  9  10  11  12  22  25  29  30  31  32 0
 6-311+G(2d,p)
 ****
 33  36  37 0
 6-311+G(2d,p)
 ****
 1  2  13  14  15  16  17  18  19  20  21  23  24  26 0
 3-21G
 ****
 27  28  34  35  38  39  40  41  42  43  44  45  46  47  48 0
 3-21G
 ****


