%nproc=1
%NoSave
%Mem=1900MB
#P OB98/GEN NMR

erre ene a

0 1
  C      -93.338     383.261    -113.966
  O      -93.541     384.161    -115.042
  P      -95.055     384.592    -115.368
  C      -96.869     383.716    -117.009
  O      -95.663     383.440    -116.308
  C      -97.220     382.584    -117.975
  O      -97.306     381.342    -117.239
  C      -98.542     382.782    -118.721
  O      -98.381     382.279    -120.049
  C      -99.512     381.890    -117.969
  O     -100.613     381.498    -118.786
  C      -98.583     380.741    -117.536
  N      -99.114     380.006    -116.391
  C      -99.629     378.731    -116.644
  O      -99.697     378.313    -117.795
  N     -100.107     377.993    -115.589
  C     -100.159     378.520    -114.405
  N     -100.634     377.743    -113.393
  C      -99.739     379.907    -114.120
  C      -99.211     380.577    -115.145
  O      -94.865     385.824    -116.373
  O      -95.871     384.956    -114.172
  H     -100.256     381.160    -119.635
  H      -95.585     386.473    -116.266
  H      -99.837     380.312    -113.125
  H      -98.855     381.591    -115.025
  H      -98.435     380.036    -118.363
  H      -99.904     382.421    -117.091
  H      -98.852     383.834    -118.759
  H      -96.395     382.477    -118.692
  H     -100.930     376.804    -113.616
  H      -96.746     384.632    -117.588
  H     -100.712     378.073    -112.439
  H      -97.680     383.876    -116.290
  P      -99.336     382.870    -121.195
  C     -101.832     382.578    -121.727
  O     -100.704     382.040    -121.063
  O      -98.688     382.225    -122.508
  O      -99.452     384.353    -121.321
  H      -99.152     382.559    -123.302
  H     -102.648     381.848    -121.673
  H     -101.602     382.773    -122.774
  H     -102.148     383.502    -121.235
  H      -92.292     383.061    -113.861
  H      -93.858     382.347    -114.163
  H      -93.711     383.696    -113.062

 3  4  5  6  7  8  9  10  11  12  13  21  23  27  28  29  30  32 0
 6-311+G(2d,p)
 ****
 34  35 0
 6-311+G(2d,p)
 ****
 1  2  14  15  16  17  18  19  20  22  24  25  26 0
 3-21G
 ****
 31  33  36  37  38  39  40  41  42  43  44  45  46 0
 3-21G
 ****


