%nproc=1
%NoSave
%Mem=1900MB
#P OB98/GEN NMR

erre ene a

0 1
  C      124.573    -116.783     454.669
  O      123.935    -115.501     454.699
  P      124.377    -114.467     455.839
  C      124.429    -112.362     454.313
  O      123.840    -113.015     455.429
  C      123.356    -111.645     453.488
  O      122.585    -112.569     452.690
  C      122.348    -110.880     454.336
  O      122.837    -109.599     454.714
  C      121.199    -110.723     453.353
  O      121.473    -109.633     452.449
  C      121.230    -112.061     452.604
  N      116.390    -113.524     452.791
  C      116.979    -112.477     452.109
  N      116.153    -111.711     451.357
  N      118.255    -112.205     452.154
  C      118.956    -113.066     452.928
  C      118.490    -114.140     453.651
  C      117.072    -114.421     453.604
  O      116.494    -115.326     454.196
  N      119.505    -114.775     454.321
  C      120.591    -114.095     453.986
  N      120.307    -113.041     453.156
  O      125.957    -114.340     455.612
  O      124.053    -114.908     457.228
  H      120.677    -109.527     451.890
  H      126.397    -114.115     456.453
  H      115.400    -113.688     452.720
  H      121.593    -114.334     454.315
  H      120.986    -111.953     451.540
  H      120.253    -110.492     453.849
  H      115.171    -111.891     451.240
  H      122.023    -111.472     455.204
  H      116.573    -110.957     450.825
  H      123.862    -110.939     452.812
  H      124.959    -113.084     453.683
  H      125.194    -111.669     454.670
  P      123.142    -109.344     456.271
  C      124.890    -107.532     455.639
  O      123.721    -107.851     456.365
  O      124.414    -110.276     456.538
  O      122.013    -109.668     457.185
  H      124.402    -110.597     457.458
  H      125.041    -106.449     455.690
  H      124.782    -107.818     454.590
  H      125.756    -108.029     456.077
  H      124.177    -117.360     453.859
  H      124.392    -117.293     455.592
  H      125.627    -116.654     454.534

 3  4  5  6  7  8  9  10  11  12  23  26  30  31 0
 6-311+G(2d,p)
 ****
 33  35  36  37  38 0
 6-311+G(2d,p)
 ****
 1  2  13  14  15  16  17  18  19  20  21  22  24  25 0
 3-21G
 ****
 27  28  29  32  34  39  40  41  42  43  44  45  46  47  48  49 0
 3-21G
 ****


