%nproc=1
%NoSave
%Mem=1900MB
#P OB98/GEN NMR

erre ene a

0 1
  C      -10.575    -170.432     169.612
  O      -10.107    -170.235     168.281
  P       -9.313    -171.427     167.563
  C      -11.308    -172.927     166.684
  O      -10.221    -172.070     166.418
  C      -11.505    -173.878     165.494
  O      -12.447    -174.920     165.835
  C      -12.044    -173.184     164.246
  O      -11.006    -172.629     163.459
  C      -12.790    -174.308     163.557
  O      -11.868    -175.181     162.879
  C      -13.429    -175.030     164.767
  N      -14.729    -174.534     165.267
  C      -15.914    -175.009     164.710
  O      -15.967    -175.832     163.799
  N      -17.073    -174.510     165.243
  C      -17.178    -173.739     166.362
  O      -18.248    -173.370     166.831
  C      -15.907    -173.388     167.002
  C      -14.766    -173.782     166.433
  O       -9.246    -172.566     168.681
  O       -7.953    -171.050     167.064
  H      -12.395    -175.857     162.419
  H       -8.321    -172.729     168.946
  H      -17.937    -174.787     164.803
  H      -15.946    -172.816     167.921
  H      -13.818    -173.525     166.900
  H      -13.561    -176.098     164.553
  H      -13.462    -173.926     162.792
  H      -12.772    -172.417     164.525
  H      -10.543    -174.355     165.268
  H      -12.223    -172.354     166.857
  H      -11.113    -173.497     167.597
  P      -11.104    -171.108     162.967
  C      -10.834    -170.020     165.273
  O      -10.233    -170.258     164.014
  O      -12.478    -170.593     162.700
  O      -10.184    -171.080     161.653
  H      -10.733    -171.187     160.841
  H      -10.088    -169.578     165.941
  H      -11.190    -170.957     165.712
  H      -11.667    -169.322     165.162
  H      -11.081    -169.550     169.946
  H       -9.744    -170.633     170.256
  H      -11.251    -171.261     169.633

 3  4  5  6  7  8  9  10  11  12  13  23  28  29  30  31  32 0
 6-311+G(2d,p)
 ****
 33  34 0
 6-311+G(2d,p)
 ****
 1  2  14  15  16  17  18  19  20  21  22  24  25  26  27 0
 3-21G
 ****
 35  36  37  38  39  40  41  42  43  44  45 0
 3-21G
 ****


