%nproc=1
%NoSave
%Mem=1900MB
#P OB98/GEN NMR

erre ene a

0 1
  C      -35.627       3.823      36.471
  O      -35.513       4.554      37.671
  H      -36.678       3.569      36.315
  H      -35.051       2.897      36.551
  H      -35.274       4.401      35.614
  P      -34.198       5.432      37.915
  C      -33.626       7.391      39.495
  O      -34.626       6.766      38.700
  C      -33.546       8.893      39.226
  O      -33.196       9.120      37.843
  C      -34.880       9.605      39.467
  O      -35.092      10.019      40.805
  C      -34.769      10.806      38.532
  O      -34.131      11.917      39.183
  C      -33.899      10.284      37.384
  N      -36.012      11.977      33.048
  C      -35.458      12.706      34.084
  N      -35.510      14.049      33.956
  N      -34.922      12.157      35.142
  C      -35.034      10.810      35.173
  C      -35.580       9.983      34.217
  C      -36.103      10.594      33.013
  O      -36.590       9.993      32.061
  N      -35.553       8.667      34.613
  C      -35.072       8.713      35.839
  N      -34.669       9.980      36.192
  O      -33.847       5.991      36.453
  O      -33.029       4.695      38.493
  H      -34.211      12.696      38.599
  H      -32.882       6.099      36.368
  H      -36.383      12.453      32.245
  H      -34.952       7.859      36.495
  H      -33.139      11.020      37.092
  H      -35.759      11.151      38.222
  H      -35.985      14.523      33.206
  H      -35.716       8.986      39.128
  H      -35.288      14.619      34.775
  H      -32.744       9.328      39.835
  H      -32.680       6.913      39.236
  H      -33.810       7.201      40.557
  P      -36.523      10.541      41.286
  C      -37.257      11.236      43.710
  O      -36.650      10.290      42.856
  O      -37.529       9.468      40.658
  O      -36.868      11.936      40.880
  H      -37.923       9.807      39.832
  H      -37.238      10.872      44.716
  H      -38.271      11.392      43.406
  H      -36.722      12.161      43.655

 6  7  8  9  10  11  12  13  14  15  26  29  33  34 0
 6-311+G(2d,p)
 ****
 36  38  39  40  41 0
 6-311+G(2d,p)
 ****
 1  2  3  4  5  16  17  18  19  20  21  22  23  24  25 0
 3-21G
 ****
 27  28  30  31  32  35  37  42  43  44  45  46  47 0
 3-21G
 ****
 48  49 0
 3-21G
 ****


