%nproc=1
%NoSave
%Mem=1900MB
#P OB98/GEN NMR

erre ene a

0 1
  C       37.552    -269.968     -59.785
  O       36.396    -269.397     -60.364
  H       38.349    -270.045     -60.530
  H       37.895    -269.321     -58.971
  H       37.324    -270.957     -59.379
  P       35.722    -270.200     -61.581
  C       36.674    -271.064     -63.840
  O       36.764    -270.100     -62.798
  C       37.491    -270.597     -65.039
  O       36.850    -269.465     -65.671
  C       38.904    -270.134     -64.697
  O       39.803    -271.218     -64.551
  C       39.231    -269.307     -65.927
  O       39.564    -270.176     -67.024
  C       37.895    -268.600     -66.194
  N       38.892    -263.607     -66.711
  C       39.138    -264.663     -67.513
  N       38.846    -265.963     -67.302
  C       38.234    -266.126     -66.117
  C       37.925    -265.144     -65.189
  C       38.274    -263.827     -65.527
  N       38.039    -262.747     -64.704
  N       37.329    -265.699     -64.072
  C       37.252    -266.987     -64.341
  N       37.793    -267.296     -65.560
  O       34.527    -269.242     -62.046
  O       35.259    -271.582     -61.267
  H       40.422    -270.587     -66.802
  H       33.864    -269.755     -62.546
  H       39.638    -264.435     -68.452
  H       36.815    -267.732     -63.689
  H       37.700    -268.459     -67.263
  H       40.080    -268.637     -65.778
  H       38.911    -269.482     -63.813
  H       37.517    -271.416     -65.773
  H       35.628    -271.175     -64.135
  H       38.491    -261.880     -64.954
  H       37.718    -262.921     -63.761
  H       37.047    -272.025     -63.475
  P       40.940    -271.088     -63.425
  C       42.862    -269.386     -63.002
  O       41.924    -269.928     -63.930
  O       41.797    -272.421     -63.618
  O       40.423    -270.939     -62.031
  H       42.238    -272.675     -62.784
  H       43.443    -268.628     -63.484
  H       43.509    -270.164     -62.654
  H       42.337    -268.960     -62.172

 6  7  8  9  10  11  12  13  14  15  25  28  32  33  34  35 0
 6-311+G(2d,p)
 ****
 36  39  40 0
 6-311+G(2d,p)
 ****
 1  2  3  4  5  16  17  18  19  20  21  22  23  24 0
 3-21G
 ****
 26  27  29  30  31  37  38  41  42  43  44  45  46  47 0
 3-21G
 ****
 48 0
 3-21G
 ****


