%nproc=1
%NoSave
%Mem=1900MB
#P OB98/GEN NMR

erre ene a

0 1
  C     -277.640    -261.249    -147.968
  O     -276.648    -262.243    -148.205
  P     -276.172    -262.739    -149.645
  C     -273.778    -263.761    -149.249
  O     -275.170    -263.970    -149.452
  C     -273.479    -263.418    -147.783
  O     -274.033    -264.470    -146.935
  C     -271.977    -263.348    -147.489
  O     -271.611    -262.264    -146.645
  C     -271.663    -264.748    -146.992
  O     -270.458    -264.828    -146.247
  C     -272.944    -265.114    -146.241
  N     -273.434    -269.185    -143.200
  C     -273.058    -267.897    -142.880
  N     -272.760    -267.655    -141.586
  N     -272.970    -266.928    -143.756
  C     -273.222    -267.323    -145.024
  C     -273.587    -268.573    -145.468
  C     -273.736    -269.625    -144.485
  O     -274.084    -270.778    -144.709
  N     -273.767    -268.587    -146.829
  C     -273.495    -267.355    -147.208
  N     -273.162    -266.547    -146.145
  O     -275.750    -261.671    -150.596
  O     -277.486    -263.444    -150.258
  H     -270.366    -265.744    -145.922
  H     -277.447    -263.300    -151.228
  H     -273.510    -269.886    -142.480
  H     -273.530    -266.992    -148.230
  H     -272.936    -264.742    -145.212
  H     -271.538    -265.392    -147.871
  H     -272.688    -268.375    -140.890
  H     -271.408    -263.159    -148.408
  H     -272.272    -266.775    -141.399
  H     -273.983    -262.479    -147.531
  H     -273.506    -262.915    -149.892
  H     -273.202    -264.625    -149.579
  P     -271.229    -260.765    -147.052
  C     -271.585    -259.863    -144.677
  O     -270.677    -260.008    -145.754
  O     -272.627    -260.037    -147.322
  O     -270.345    -260.652    -148.252
  H     -272.666    -259.736    -148.251
  H     -271.192    -259.118    -143.985
  H     -271.689    -260.817    -144.153
  H     -272.564    -259.532    -145.036
  H     -277.762    -261.112    -146.914
  H     -278.569    -261.562    -148.397
  H     -277.334    -260.326    -148.415

 3  4  5  6  7  8  9  10  11  12  23  26  30  31 0
 6-311+G(2d,p)
 ****
 33  35  36  37  38 0
 6-311+G(2d,p)
 ****
 1  2  13  14  15  16  17  18  19  20  21  22  24  25 0
 3-21G
 ****
 27  28  29  32  34  39  40  41  42  43  44  45  46  47  48  49 0
 3-21G
 ****


