%nproc=1
%NoSave
%Mem=1900MB
#P OB98/GEN NMR

erre ene a

0 1
  C     -110.700     298.529    -289.893
  O     -110.218     298.920    -288.622
  H     -110.356     299.254    -290.639
  H     -111.793     298.521    -289.890
  H     -110.321     297.540    -290.167
  P     -110.344     297.899    -287.393
  C     -108.317     298.971    -286.201
  O     -109.696     298.626    -286.115
  C     -107.768     299.349    -284.821
  O     -108.313     300.660    -284.449
  C     -108.141     298.359    -283.701
  O     -107.064     298.355    -282.755
  C     -109.377     299.032    -283.119
  O     -109.727     298.490    -281.873
  C     -108.917     300.492    -283.151
  N     -110.001     301.448    -282.947
  C     -110.289     301.819    -281.633
  O     -109.671     301.403    -280.652
  N     -111.335     302.688    -281.476
  C     -112.107     303.203    -282.478
  O     -113.018     303.996    -282.281
  C     -111.772     302.753    -283.839
  C     -110.753     301.907    -284.010
  O     -109.848     296.514    -287.647
  O     -111.912     297.910    -287.053
  H     -112.342     297.140    -287.474
  H     -110.589     298.851    -281.567
  H     -111.557     302.965    -280.530
  H     -112.381     303.130    -284.653
  H     -110.480     301.555    -285.001
  H     -108.137     300.671    -282.404
  H     -110.237     298.884    -283.783
  H     -108.313     297.343    -284.067
  H     -106.679     299.471    -284.895
  H     -108.223     299.818    -286.892
  H     -107.760     298.118    -286.606
  P     -105.844     297.309    -282.804
  C     -103.823     298.816    -282.253
  O     -104.688     297.785    -281.795
  O     -105.346     297.038    -284.191
  O     -106.408     295.965    -282.141
  H     -106.023     295.191    -282.598
  H     -103.103     299.040    -281.494
  H     -104.397     299.693    -282.470
  H     -103.319     298.491    -283.139

 6  7  8  9  10  11  12  13  14  15  16  27  31  32  33  34  35 0
 6-311+G(2d,p)
 ****
 36  37 0
 6-311+G(2d,p)
 ****
 1  2  3  4  5  17  18  19  20  21  22  23  24  25 0
 3-21G
 ****
 26  28  29  30  38  39  40  41  42  43  44  45 0
 3-21G
 ****


