%nproc=1
%NoSave
%Mem=1900MB
#P OB98/GEN NMR

erre ene a

0 1
  C     -138.125     -14.425     -98.997
  O     -137.660     -15.722     -98.683
  P     -137.915     -16.367     -97.240
  C     -140.266     -16.951     -98.080
  O     -139.499     -16.432     -97.002
  C     -141.320     -17.945     -97.589
  O     -142.129     -17.315     -96.556
  C     -142.270     -18.446     -98.687
  O     -142.530     -19.831     -98.418
  C     -143.520     -17.618     -98.468
  O     -144.678     -18.228     -99.016
  C     -143.510     -17.484     -96.941
  N     -144.327     -16.373     -96.475
  C     -145.620     -16.678     -96.042
  O     -146.067     -17.817     -96.185
  N     -146.374     -15.682     -95.471
  C     -145.947     -14.458     -95.508
  N     -146.690     -13.512     -94.872
  C     -144.694     -14.066     -96.185
  C     -143.921     -15.068     -96.601
  O     -137.143     -15.745     -96.125
  O     -137.515     -17.908     -97.423
  H     -136.867     -18.155     -96.732
  H     -144.580     -18.276     -99.991
  H     -144.439     -13.024     -96.300
  H     -142.969     -14.882     -97.087
  H     -143.866     -18.407     -96.471
  H     -143.395     -16.634     -98.940
  H     -141.845     -18.346     -99.691
  H     -140.801     -18.788     -97.122
  H     -147.521     -13.823     -94.384
  H     -139.588     -17.463     -98.765
  H     -146.293     -12.620     -94.575
  H     -140.738     -16.129     -98.629
  P     -142.823     -20.806     -99.664
  C     -140.381     -21.652     -99.903
  O     -141.460     -20.964    -100.496
  O     -143.691     -19.850    -100.622
  O     -143.586     -22.053     -99.368
  H     -144.254     -20.402    -101.194
  H     -139.521     -21.604    -100.579
  H     -140.640     -22.702     -99.744
  H     -140.102     -21.190     -98.949
  H     -137.854     -14.183    -100.003
  H     -137.683     -13.716     -98.328
  H     -139.190     -14.394     -98.897

 3  4  5  6  7  8  9  10  11  12  13  24  27  28  29  30  32 0
 6-311+G(2d,p)
 ****
 34  35 0
 6-311+G(2d,p)
 ****
 1  2  14  15  16  17  18  19  20  21  22  23  25  26 0
 3-21G
 ****
 31  33  36  37  38  39  40  41  42  43  44  45  46 0
 3-21G
 ****


