%nproc=1
%NoSave
%Mem=1900MB
#P OB98/GEN NMR

erre ene a

0 1
  C     -390.380     -92.771     -21.038
  O     -389.955     -92.454     -22.349
  P     -388.877     -93.366     -23.102
  C     -390.850     -94.593     -24.180
  O     -389.605     -94.738     -23.509
  C     -391.220     -95.862     -24.946
  O     -392.601     -95.763     -25.388
  C     -390.361     -96.137     -26.188
  O     -390.242     -97.559     -26.302
  C     -391.227     -95.607     -27.317
  O     -390.880     -96.153     -28.584
  C     -392.607     -96.004     -26.811
  N     -396.772     -96.253     -29.764
  C     -395.895     -97.199     -29.369
  N     -394.796     -97.049     -28.602
  C     -394.645     -95.765     -28.236
  C     -395.440     -94.688     -28.585
  C     -396.566     -94.971     -29.379
  N     -397.490     -94.027     -29.761
  N     -394.922     -93.516     -28.061
  C     -393.840     -93.887     -27.410
  N     -393.668     -95.242     -27.433
  O     -387.578     -93.539     -22.388
  O     -388.668     -92.636     -24.509
  H     -390.155     -95.620     -28.961
  H     -387.803     -92.180     -24.522
  H     -396.104     -98.210     -29.707
  H     -393.152     -93.221     -26.907
  H     -392.817     -97.069     -26.973
  H     -391.123     -94.517     -27.379
  H     -389.373     -95.667     -26.159
  H     -391.166     -96.709     -24.248
  H     -390.757     -93.762     -24.886
  H     -398.326     -94.361     -30.213
  H     -397.508     -93.133     -29.277
  H     -391.634     -94.345     -23.456
  P     -389.155     -98.192     -27.297
  C     -387.871     -99.164     -25.306
  O     -387.801     -98.338     -26.455
  O     -389.020     -97.508     -28.614
  O     -389.643     -99.711     -27.463
  H     -389.223    -100.102     -28.253
  H     -388.315     -98.600     -24.482
  H     -386.859     -99.471     -25.027
  H     -388.472    -100.056     -25.499
  H     -391.098     -92.048     -20.711
  H     -389.538     -92.762     -20.378
  H     -390.826     -93.744     -21.033

 3  4  5  6  7  8  9  10  11  12  22  25  29  30  31  32 0
 6-311+G(2d,p)
 ****
 33  36  37 0
 6-311+G(2d,p)
 ****
 1  2  13  14  15  16  17  18  19  20  21  23  24  26 0
 3-21G
 ****
 27  28  34  35  38  39  40  41  42  43  44  45  46  47  48 0
 3-21G
 ****


