%nproc=1
%NoSave
%Mem=1900MB
#P OB98/GEN NMR

erre ene a

0 1
  C      153.778    -600.129     127.542
  O      154.052    -599.937     126.145
  P      153.116    -599.063     125.175
  C      154.829    -597.391     124.178
  O      154.004    -598.543     123.944
  C      156.225    -597.603     123.607
  O      156.952    -598.583     124.386
  C      156.279    -598.143     122.182
  O      155.916    -597.172     121.215
  C      157.727    -598.607     122.087
  O      158.609    -597.532     121.746
  C      158.014    -599.072     123.532
  N      158.138    -600.522     123.652
  C      159.448    -601.029     123.761
  O      160.413    -600.275     123.686
  N      159.619    -602.370     123.946
  C      158.579    -603.168     123.905
  N      158.798    -604.494     124.107
  C      157.202    -602.689     123.637
  C      157.053    -601.378     123.539
  O      152.360    -597.981     125.875
  O      152.110    -600.120     124.503
  H      151.291    -599.660     124.243
  H      159.506    -597.820     121.983
  H      156.378    -603.391     123.582
  H      156.084    -600.928     123.365
  H      158.933    -598.608     123.913
  H      157.865    -599.394     121.330
  H      155.612    -599.005     122.104
  H      156.770    -596.654     123.664
  H      159.749    -604.786     124.287
  H      154.903    -597.228     125.261
  H      158.063    -605.185     124.116
  H      154.346    -596.514     123.740
  P      154.689    -597.524     120.249
  C      152.719    -596.029     121.061
  O      153.763    -596.211     120.135
  O      153.801    -598.532     121.113
  O      155.087    -598.129     118.936
  H      153.452    -599.239     120.535
  H      152.522    -594.968     121.170
  H      152.966    -596.458     122.037
  H      151.812    -596.519     120.677
  H      154.539    -600.745     127.973
  H      152.827    -600.605     127.657
  H      153.764    -599.180     128.036

 3  4  5  6  7  8  9  10  11  12  13  24  27  28  29  30  32 0
 6-311+G(2d,p)
 ****
 34  35 0
 6-311+G(2d,p)
 ****
 1  2  14  15  16  17  18  19  20  21  22  23  25  26 0
 3-21G
 ****
 31  33  36  37  38  39  40  41  42  43  44  45  46 0
 3-21G
 ****


