%nproc=1
%NoSave
%Mem=1900MB
#P OB98/GEN NMR

erre ene a

0 1
  C      352.717     117.978    -405.356
  O      353.783     118.334    -404.507
  H      352.435     116.941    -405.145
  H      353.026     118.041    -406.405
  H      351.850     118.618    -405.181
  P      354.432     119.797    -404.629
  C      355.050     120.131    -402.160
  O      355.544     119.868    -403.467
  C      355.334     118.959    -401.218
  O      354.494     117.831    -401.581
  C      356.792     118.481    -401.252
  O      357.279     118.314    -399.918
  C      356.709     117.123    -401.936
  O      357.796     116.262    -401.606
  C      355.321     116.657    -401.478
  N      354.823     115.548    -402.281
  C      355.311     114.281    -401.958
  O      356.116     114.145    -401.033
  N      354.927     113.207    -402.718
  C      354.155     113.393    -403.745
  N      353.835     112.293    -404.475
  C      353.635     114.718    -404.139
  C      354.000     115.742    -403.369
  O      353.447     120.919    -404.629
  O      355.317     119.743    -405.962
  H      357.635     115.388    -402.022
  H      355.455     120.660    -406.294
  H      353.000     114.819    -405.004
  H      353.672     116.754    -403.581
  H      355.342     116.346    -400.426
  H      356.710     117.268    -403.026
  H      357.458     119.157    -401.790
  H      355.036     119.252    -400.204
  H      354.217     111.403    -404.173
  H      353.971     120.318    -402.224
  H      353.263     112.314    -405.305
  H      355.548     121.026    -401.778
  P      358.306     119.433    -399.395
  C      356.820     119.792    -397.296
  O      358.126     119.563    -397.803
  O      357.688     120.797    -399.966
  O      359.705     119.226    -399.865
  H      358.259     121.148    -400.675
  H      356.858     119.855    -396.229
  H      356.179     118.984    -397.583
  H      356.438     120.709    -397.694

 6  7  8  9  10  11  12  13  14  15  16  26  30  31  32  33  35 0
 6-311+G(2d,p)
 ****
 37  38 0
 6-311+G(2d,p)
 ****
 1  2  3  4  5  17  18  19  20  21  22  23  24  25 0
 3-21G
 ****
 27  28  29  34  36  39  40  41  42  43  44  45  46 0
 3-21G
 ****


