%nproc=1
%NoSave
%Mem=1900MB
#P OB98/GEN NMR

erre ene a

0 1
  C      125.232    -847.438    -217.685
  O      124.082    -847.913    -218.353
  H      124.927    -846.676    -216.963
  H      125.932    -846.989    -218.394
  H      125.721    -848.253    -217.145
  P      124.272    -848.964    -219.548
  C      124.760    -851.502    -219.680
  O      124.792    -850.329    -218.882
  C      124.916    -852.758    -218.814
  O      126.137    -852.639    -218.029
  C      123.760    -852.974    -217.822
  O      123.632    -854.384    -217.615
  C      124.302    -852.298    -216.576
  O      123.560    -852.651    -215.433
  C      125.767    -852.745    -216.639
  N      126.629    -851.946    -215.782
  C      126.507    -852.161    -214.405
  O      125.691    -852.980    -213.978
  N      127.282    -851.424    -213.550
  C      128.065    -850.504    -214.015
  N      128.798    -849.799    -213.113
  C      128.182    -850.202    -215.459
  C      127.449    -850.959    -216.277
  O      125.083    -848.487    -220.709
  O      122.776    -849.324    -219.993
  H      123.841    -852.124    -214.655
  H      122.565    -848.877    -220.831
  H      128.832    -849.412    -215.802
  H      127.468    -850.809    -217.352
  H      125.866    -853.798    -216.349
  H      124.236    -851.209    -216.669
  H      122.813    -852.556    -218.172
  H      125.043    -853.628    -219.470
  H      128.676    -850.032    -212.132
  H      125.586    -851.436    -220.397
  H      129.421    -849.047    -213.361
  H      123.818    -851.555    -220.237
  P      122.557    -855.283    -218.398
  C      122.473    -855.615    -220.958
  O      123.207    -855.829    -219.760
  O      121.226    -854.621    -218.585
  O      122.397    -856.609    -217.508
  H      121.490    -856.951    -217.605
  H      123.014    -856.024    -221.786
  H      122.333    -854.565    -221.108
  H      121.520    -856.095    -220.883

 6  7  8  9  10  11  12  13  14  15  16  26  30  31  32  33  35 0
 6-311+G(2d,p)
 ****
 37  38 0
 6-311+G(2d,p)
 ****
 1  2  3  4  5  17  18  19  20  21  22  23  24  25 0
 3-21G
 ****
 27  28  29  34  36  39  40  41  42  43  44  45  46 0
 3-21G
 ****


