%nproc=1
%NoSave
%Mem=1900MB
#P OB98/GEN NMR

erre ene a

0 1
  C     -674.092      37.617    -419.677
  O     -672.731      37.478    -419.318
  P     -671.625      37.855    -420.418
  C     -671.091      35.373    -421.002
  O     -671.584      36.628    -421.459
  C     -671.042      34.375    -422.153
  O     -672.361      34.188    -422.722
  C     -670.160      34.814    -423.323
  O     -668.788      34.552    -423.078
  C     -670.690      33.919    -424.438
  O     -670.116      32.601    -424.320
  C     -672.194      33.882    -424.138
  N     -673.626      35.120    -428.834
  C     -673.013      33.966    -428.367
  N     -672.686      33.041    -429.295
  N     -672.747      33.745    -427.103
  C     -673.131      34.761    -426.301
  C     -673.747      35.945    -426.643
  C     -674.021      36.186    -428.036
  O     -674.508      37.206    -428.517
  N     -673.982      36.722    -425.528
  C     -673.510      36.011    -424.521
  N     -672.943      34.840    -424.932
  O     -670.240      37.712    -419.622
  O     -671.789      39.218    -421.033
  H     -669.141      32.721    -424.346
  H     -669.528      38.173    -420.106
  H     -673.802      35.242    -429.815
  H     -673.544      36.319    -423.484
  H     -672.616      32.887    -424.304
  H     -670.432      34.293    -425.432
  H     -672.811      33.188    -430.294
  H     -670.341      35.865    -423.578
  H     -672.181      32.215    -428.998
  H     -670.712      33.412    -421.757
  H     -671.759      34.984    -420.216
  H     -670.102      35.500    -420.565
  P     -667.751      35.710    -423.484
  C     -666.755      34.569    -425.594
  O     -667.579      35.587    -425.071
  O     -666.362      35.169    -422.904
  O     -668.103      37.068    -422.952
  H     -665.763      35.919    -422.707
  H     -666.959      34.473    -426.663
  H     -666.953      33.603    -425.101
  H     -665.701      34.851    -425.468
  H     -674.710      37.332    -418.851
  H     -674.306      36.988    -420.516
  H     -674.290      38.636    -419.936

 3  4  5  6  7  8  9  10  11  12  23  26  30  31 0
 6-311+G(2d,p)
 ****
 33  35  36  37  38 0
 6-311+G(2d,p)
 ****
 1  2  13  14  15  16  17  18  19  20  21  22  24  25 0
 3-21G
 ****
 27  28  29  32  34  39  40  41  42  43  44  45  46  47  48  49 0
 3-21G
 ****


