%nproc=1
%NoSave
%Mem=1900MB
#P OB98/GEN NMR

erre ene a

0 1
  C     -173.434    -556.940    -531.023
  O     -173.720    -557.010    -529.631
  P     -174.056    -555.631    -528.873
  C     -176.159    -556.229    -527.466
  O     -174.753    -556.019    -527.480
  C     -176.747    -555.908    -526.091
  O     -176.253    -556.886    -525.131
  C     -176.393    -554.516    -525.539
  O     -177.519    -554.056    -524.801
  C     -175.212    -554.815    -524.637
  O     -174.912    -553.783    -523.705
  C     -175.684    -556.138    -524.035
  N     -172.142    -556.103    -520.324
  C     -173.132    -555.233    -520.643
  N     -174.039    -555.313    -521.635
  C     -173.852    -556.445    -522.348
  C     -172.891    -557.406    -522.161
  C     -171.993    -557.211    -521.089
  N     -170.978    -558.095    -520.780
  N     -173.011    -558.417    -523.099
  C     -174.032    -558.050    -523.853
  N     -174.584    -556.887    -523.423
  O     -175.275    -555.027    -529.734
  O     -172.915    -554.666    -528.768
  H     -174.725    -552.955    -524.180
  H     -175.203    -554.067    -529.824
  H     -173.208    -554.350    -520.011
  H     -174.390    -558.597    -524.716
  H     -176.453    -555.999    -523.278
  H     -174.317    -554.960    -525.240
  H     -176.171    -553.785    -526.335
  H     -177.840    -556.032    -526.149
  H     -176.373    -557.273    -527.701
  H     -170.282    -557.767    -520.135
  H     -170.760    -558.803    -521.470
  H     -176.625    -555.610    -528.245
  P     -178.005    -552.538    -524.980
  C     -180.458    -553.286    -524.721
  O     -179.414    -552.478    -524.192
  O     -178.502    -552.543    -526.502
  O     -177.005    -551.480    -524.653
  H     -179.103    -553.286    -526.690
  H     -181.317    -553.235    -524.033
  H     -180.135    -554.319    -524.809
  H     -180.769    -552.898    -525.707
  H     -173.230    -557.922    -531.395
  H     -172.580    -556.315    -531.181
  H     -174.276    -556.530    -531.540

 3  4  5  6  7  8  9  10  11  12  22  25  29  30  31  32 0
 6-311+G(2d,p)
 ****
 33  36  37 0
 6-311+G(2d,p)
 ****
 1  2  13  14  15  16  17  18  19  20  21  23  24  26 0
 3-21G
 ****
 27  28  34  35  38  39  40  41  42  43  44  45  46  47  48 0
 3-21G
 ****


