%nproc=1
%NoSave
%Mem=1900MB
#P OB98/GEN NMR

erre ene a

0 1
  C     -198.859    -209.651     204.477
  O     -197.489    -209.308     204.497
  H     -199.344    -209.213     203.603
  H     -198.950    -210.739     204.423
  H     -199.349    -209.302     205.391
  P     -197.136    -207.743     204.538
  C     -195.113    -207.873     206.156
  O     -195.558    -207.625     204.829
  C     -193.883    -208.775     206.131
  O     -194.236    -210.012     205.459
  C     -192.660    -208.174     205.420
  O     -191.541    -208.127     206.310
  C     -192.345    -209.163     204.308
  O     -190.946    -209.386     204.130
  C     -193.062    -210.434     204.749
  N     -191.188    -212.946     200.731
  C     -190.608    -212.547     201.885
  N     -191.187    -211.978     202.961
  C     -192.515    -211.853     202.778
  C     -193.249    -212.235     201.669
  C     -192.526    -212.791     200.600
  N     -193.109    -213.147     199.403
  N     -194.587    -211.940     201.845
  C     -194.652    -211.349     203.020
  N     -193.421    -211.258     203.613
  O     -197.808    -207.251     205.906
  O     -197.622    -206.955     203.369
  H     -190.536    -208.507     204.007
  H     -198.320    -206.439     205.745
  H     -189.535    -212.699     201.950
  H     -195.545    -210.931     203.465
  H     -192.451    -211.036     205.433
  H     -192.756    -208.781     203.365
  H     -192.856    -207.177     205.015
  H     -193.627    -209.036     207.169
  H     -195.908    -208.370     206.722
  H     -192.500    -213.428     198.650
  H     -194.085    -212.934     199.257
  H     -194.887    -206.918     206.638
  P     -190.518    -206.897     206.117
  C     -190.791    -205.816     208.469
  O     -189.944    -206.518     207.566
  O     -191.493    -205.674     205.774
  O     -189.501    -207.121     205.050
  H     -191.018    -205.007     205.238
  H     -190.267    -205.639     209.385
  H     -191.665    -206.401     208.666
  H     -191.078    -204.881     208.035

 6  7  8  9  10  11  12  13  14  15  25  28  32  33  34  35 0
 6-311+G(2d,p)
 ****
 36  39  40 0
 6-311+G(2d,p)
 ****
 1  2  3  4  5  16  17  18  19  20  21  22  23  24 0
 3-21G
 ****
 26  27  29  30  31  37  38  41  42  43  44  45  46  47  48 0
 3-21G
 ****


