%nproc=1
%NoSave
%Mem=1900MB
#P OB98/GEN NMR

erre ene a

0 1
  C      -89.461     -29.256     102.313
  O      -88.758     -28.223     101.642
  P      -87.250     -27.930     102.116
  C      -86.170     -27.266     104.392
  O      -87.340     -27.284     103.580
  C      -86.326     -26.242     105.513
  O      -86.250     -24.905     104.980
  C      -87.657     -26.308     106.253
  O      -87.691     -27.407     107.149
  C      -87.672     -24.937     106.923
  O      -86.835     -24.951     108.092
  C      -87.048     -24.043     105.836
  N      -88.689     -19.487     104.164
  C      -87.681     -19.834     104.997
  N      -87.321     -21.067     105.412
  C      -88.118     -22.001     104.870
  C      -89.195     -21.799     104.024
  C      -89.474     -20.471     103.664
  N      -90.506     -20.121     102.818
  N      -89.791     -22.998     103.692
  C      -89.078     -23.910     104.318
  N      -88.046     -23.361     105.030
  O      -86.812     -26.701     101.194
  O      -86.314     -29.093     101.987
  H      -87.094     -25.731     108.625
  H      -85.862     -26.750     100.974
  H      -87.083     -19.010     105.380
  H      -89.263     -24.978     104.282
  H      -86.380     -23.280     106.252
  H      -88.673     -24.624     107.237
  H      -88.487     -26.385     105.539
  H      -85.493     -26.381     106.217
  H      -85.305     -26.991     103.780
  H      -90.728     -19.141     102.731
  H      -91.173     -20.839     102.561
  H      -86.004     -28.269     104.797
  P      -89.121     -28.082     107.429
  C      -91.270     -27.098     108.437
  O      -89.856     -27.035     108.402
  O      -88.727     -29.269     108.426
  O      -89.879     -28.478     106.209
  H      -88.154     -28.964     109.149
  H      -91.634     -26.376     109.172
  H      -91.597     -28.099     108.731
  H      -91.680     -26.843     107.456
  H      -90.445     -29.344     101.901
  H      -89.530     -29.022     103.355
  H      -88.939     -30.182     102.189

 3  4  5  6  7  8  9  10  11  12  22  25  29  30  31  32 0
 6-311+G(2d,p)
 ****
 33  36  37 0
 6-311+G(2d,p)
 ****
 1  2  13  14  15  16  17  18  19  20  21  23  24  26 0
 3-21G
 ****
 27  28  34  35  38  39  40  41  42  43  44  45  46  47  48 0
 3-21G
 ****


