%nproc=1
%NoSave
%Mem=1900MB
#P OB98/GEN NMR

erre ene a

0 1
  C      127.223     178.725      41.751
  O      126.176     178.302      40.897
  H      127.520     177.887      42.383
  H      126.881     179.545      42.383
  H      128.087     179.050      41.162
  P      125.624     179.392      39.851
  C      124.025     181.450      40.035
  O      124.677     180.370      40.700
  C      123.248     182.303      41.038
  O      121.986     181.635      41.339
  C      123.977     182.494      42.386
  O      123.590     183.765      42.940
  C      123.381     181.376      43.226
  O      123.630     181.605      44.595
  C      121.931     181.466      42.774
  N      119.049     179.311      46.393
  C      119.615     180.539      46.297
  N      120.362     181.041      45.291
  C      120.480     180.139      44.303
  C      119.959     178.858      44.254
  C      119.215     178.442      45.375
  N      118.655     177.192      45.480
  N      120.319     178.232      43.071
  C      121.031     179.120      42.419
  N      121.153     180.294      43.115
  O      124.595     178.550      38.956
  O      126.655     180.077      39.025
  H      123.262     180.889      45.145
  H      125.049     178.205      38.165
  H      119.444     181.200      47.146
  H      121.493     178.978      41.445
  H      121.406     182.341      43.190
  H      123.820     180.410      42.967
  H      125.068     182.445      42.294
  H      123.000     183.268      40.578
  H      123.342     181.029      39.285
  H      124.778     182.068      39.530
  H      118.161     176.960      46.332
  H      118.804     176.507      44.749
  P      124.704     184.912      43.115
  C      126.633     185.470      44.791
  O      125.406     184.793      44.558
  O      123.808     186.231      43.282
  O      125.649     185.075      41.964
  H      124.167     186.944      42.724
  H      126.957     185.285      45.794
  H      126.493     186.521      44.650
  H      127.373     185.113      44.105

 6  7  8  9  10  11  12  13  14  15  25  28  32  33  34  35 0
 6-311+G(2d,p)
 ****
 36  37  40 0
 6-311+G(2d,p)
 ****
 1  2  3  4  5  16  17  18  19  20  21  22  23  24 0
 3-21G
 ****
 26  27  29  30  31  38  39 41  42  43  44  45  46  47  48 0
 3-21G
 ****


