%nproc=1
%NoSave
%Mem=1900MB
#P OB98/GEN NMR

erre ene a

0 1
  C      180.180    -400.284    -127.759
  O      181.402    -400.806    -128.244
  P      182.603    -399.763    -128.485
  C      183.110    -397.954    -130.284
  O      182.269    -399.027    -129.871
  C      182.965    -397.710    -131.783
  O      183.592    -398.777    -132.517
  C      181.525    -397.673    -132.259
  O      180.928    -396.425    -131.952
  C      181.698    -397.908    -133.760
  O      181.954    -396.679    -134.454
  C      182.937    -398.835    -133.808
  N      182.605    -400.202    -134.175
  C      182.435    -400.439    -135.544
  O      182.553    -399.517    -136.353
  N      182.105    -401.704    -135.956
  C      181.942    -402.650    -135.076
  N      181.616    -403.885    -135.547
  C      182.090    -402.432    -133.625
  C      182.411    -401.196    -133.248
  O      183.834    -400.715    -128.851
  O      182.896    -398.871    -127.328
  H      181.174    -396.111    -134.288
  H      184.684    -400.289    -128.622
  H      181.946    -403.253    -132.932
  H      182.535    -400.953    -132.197
  H      183.667    -398.455    -134.538
  H      180.807    -398.352    -134.215
  H      180.945    -398.491    -131.824
  H      183.476    -396.771    -132.029
  H      181.518    -404.001    -136.545
  H      184.148    -398.207    -130.065
  H      181.492    -404.689    -134.940
  H      182.841    -397.055    -129.712
  P      179.520    -396.442    -131.179
  C      177.269    -397.516    -131.767
  O      178.465    -396.952    -132.273
  O      179.174    -394.884    -131.080
  O      179.481    -397.124    -129.850
  H      178.374    -394.762    -130.529
  H      176.576    -397.678    -132.600
  H      176.802    -396.843    -131.046
  H      177.477    -398.484    -131.300
  H      179.473    -401.079    -127.645
  H      179.799    -399.565    -128.453
  H      180.344    -399.813    -126.812

 3  4  5  6  7  8  9  10  11  12  13  21  23  27  28  29  30  32 0
 6-311+G(2d,p)
 ****
 34  35 0
 6-311+G(2d,p)
 ****
 1  2  14  15  16  17  18  19  20  22  24  25  26 0
 3-21G
 ****
 31  33  36  37  38  39  40  41  42  43  44  45  46 0
 3-21G
 ****


