%nproc=1
%NoSave
%Mem=1900MB
#P OB98/GEN NMR

erre ene a

0 1
  C      188.417     259.097    -305.180
  O      187.671     259.368    -306.374
  P      188.447     260.153    -307.547
  C      186.706     262.023    -307.981
  O      187.361     260.866    -308.488
  C      185.182     261.943    -308.160
  O      184.829     261.755    -309.556
  C      184.533     260.801    -307.369
  O      183.239     261.251    -306.956
  C      184.366     259.714    -308.418
  O      183.375     258.772    -308.023
  C      184.022     260.567    -309.655
  N      184.239     259.857    -310.912
  C      183.556     258.650    -311.091
  O      182.859     258.186    -310.183
  N      183.701     257.971    -312.278
  C      184.507     258.428    -313.184
  N      184.612     257.715    -314.336
  C      185.294     259.672    -313.013
  C      185.110     260.328    -311.882
  O      189.027     258.972    -308.461
  O      189.541     261.040    -307.048
  H      183.305     258.087    -308.727
  H      189.975     259.114    -308.638
  H      185.968     260.012    -313.795
  H      185.642     261.240    -311.659
  H      182.963     260.878    -309.626
  H      185.314     259.183    -308.572
  H      185.114     260.490    -306.499
  H      184.753     262.898    -307.839
  H      184.053     256.876    -314.419
  H      187.081     262.909    -308.494
  H      185.208     257.977    -315.104
  H      186.973     262.148    -306.929
  P      183.149     262.314    -305.766
  C      181.932     260.349    -304.634
  O      181.988     261.760    -304.803
  O      182.382     263.534    -306.489
  O      184.410     262.767    -305.116
  H      182.328     264.294    -305.880
  H      181.191     260.117    -303.867
  H      182.909     259.967    -304.311
  H      181.633     259.871    -305.572
  H      187.796     258.575    -304.482
  H      188.744     260.019    -304.747
  H      189.268     258.494    -305.420

 3  4  5  6  7  8  9  10  11  12  13  21  23  27  28  29  30  32 0
 6-311+G(2d,p)
 ****
 34  35 0
 6-311+G(2d,p)
 ****
 1  2  14  15  16  17  18  19  20  22  24  25  26 0
 3-21G
 ****
 31  33  36  37  38  39  40  41  42  43  44  45  46 0
 3-21G
 ****


