%nproc=1
%NoSave
%Mem=1900MB
#P OB98/GEN NMR

erre ene a

0 1
  C     -180.522     -96.733      52.761
  O     -181.688     -97.353      53.299
  P     -181.692     -98.940      53.536
  C     -182.247     -99.341      51.057
  O     -181.384     -99.672      52.138
  C     -182.326    -100.461      50.007
  O     -181.019    -100.722      49.429
  C     -182.865    -101.795      50.545
  O     -183.637    -102.388      49.494
  C     -181.592    -102.580      50.788
  O     -181.828    -103.978      50.890
  C     -180.757    -102.133      49.586
  N     -179.337    -102.399      49.760
  C     -178.890    -103.689      49.465
  O     -179.700    -104.573      49.176
  N     -177.540    -103.949      49.540
  C     -176.738    -103.041      50.010
  N     -175.409    -103.333      50.045
  C     -177.205    -101.730      50.498
  C     -178.496    -101.474      50.319
  O     -182.867     -99.477      54.282
  O     -180.331     -99.177      54.361
  H     -182.450    -104.140      51.633
  H     -180.469     -99.907      54.998
  H     -176.511    -101.040      50.957
  H     -178.934    -100.535      50.641
  H     -181.096    -102.630      48.667
  H     -181.124    -102.247      51.722
  H     -183.494    -101.684      51.434
  H     -182.976    -100.108      49.193
  H     -175.109    -104.243      49.729
  H     -181.884     -98.426      50.580
  H     -174.717    -102.662      50.350
  H     -183.242     -99.101      51.456
  P     -185.144    -101.881      49.257
  C     -186.316    -103.318      51.084
  O     -185.940    -102.028      50.640
  O     -185.761    -103.093      48.393
  O     -185.295    -100.595      48.511
  H     -186.506    -102.752      47.861
  H     -186.581    -103.258      52.146
  H     -185.494    -104.031      50.976
  H     -187.186    -103.662      50.520
  H     -180.688     -95.680      52.668
  H     -180.311     -97.147      51.797
  H     -179.692     -96.907      53.414

 3  4  5  6  7  8  9  10  11  12  13  23  27  28  29  30  32 0
 6-311+G(2d,p)
 ****
 34  35 0
 6-311+G(2d,p)
 ****
 1  2  14  15  16  17  18  19  20  21  22  24  25  26 0
 3-21G
 ****
 31  33  36  37  38  39  40  41  42  43  44  45  46 0
 3-21G
 ****


