%nproc=1
%NoSave
%Mem=1900MB
#P OB98/GEN NMR

erre ene a

0 1
  C      -62.993      43.113      54.209
  O      -61.622      43.121      53.848
  P      -60.991      41.972      52.917
  C      -60.632      43.757      51.078
  O      -61.182      42.493      51.413
  C      -59.520      43.596      50.038
  O      -60.103      43.069      48.815
  C      -58.793      44.898      49.680
  O      -57.423      44.565      49.427
  C      -59.486      45.332      48.401
  O      -58.692      46.218      47.623
  C      -59.758      43.973      47.746
  N      -60.821      44.036      46.748
  C      -60.460      44.324      45.430
  O      -59.287      44.541      45.130
  N      -61.443      44.360      44.472
  C      -62.686      44.210      44.813
  N      -63.616      44.195      43.820
  C      -63.122      44.012      46.211
  C      -62.144      43.914      47.109
  O      -61.515      40.601      53.173
  O      -59.413      42.120      53.121
  H      -58.404      46.955      48.194
  H      -59.080      41.630      53.915
  H      -64.172      43.920      46.449
  H      -62.367      43.744      48.153
  H      -58.842      43.585      47.286
  H      -60.421      45.847      48.648
  H      -58.842      45.642      50.481
  H      -58.807      42.848      50.408
  H      -63.266      44.160      42.869
  H      -60.206      44.200      51.983
  H      -64.525      43.769      43.962
  H      -61.423      44.418      50.708
  P      -56.297      45.656      49.778
  C      -55.801      45.094      52.265
  O      -56.397      45.983      51.343
  O      -56.916      46.984      49.119
  O      -54.932      45.404      49.226
  H      -56.190      47.601      48.907
  H      -55.962      45.478      53.276
  H      -54.723      45.025      52.087
  H      -56.255      44.104      52.190
  H      -63.204      43.960      54.828
  H      -63.215      42.215      54.747
  H      -63.595      43.158      53.325

 3  4  5  6  7  8  9  10  11  12  13  23  27  28  29  30  32 0
 6-311+G(2d,p)
 ****
 34  35 0
 6-311+G(2d,p)
 ****
 1  2  14  15  16  17  18  19  20  21  22  24  25  26 0
 3-21G
 ****
 31  33  36  37  38  39  40  41  42  43  44  45  46 0
 3-21G
 ****


