%nproc=1
%NoSave
%Mem=1900MB
#P OB98/GEN NMR

erre ene a

0 1
  C        6.103     716.504     139.194
  O        5.213     715.613     139.831
  H        5.787     716.629     138.155
  H        7.112     716.084     139.205
  H        6.107     717.482     139.683
  P        5.153     715.598     141.428
  C        6.064     713.245     141.978
  O        4.916     714.083     141.905
  C        5.706     711.832     142.438
  O        5.307     711.861     143.824
  C        4.534     711.238     141.651
  O        4.905     710.583     140.449
  C        3.946     710.251     142.655
  O        4.584     708.967     142.559
  C        4.252     710.901     144.011
  N       -0.011     710.367     146.783
  C        0.807     709.387     146.251
  N        0.409     708.112     146.454
  N        1.892     709.644     145.571
  C        2.103     710.964     145.363
  C        1.353     712.026     145.823
  C        0.194     711.729     146.638
  O       -0.551     712.562     147.147
  N        1.853     713.223     145.381
  C        2.848     712.885     144.582
  N        3.088     711.528     144.603
  O        3.742     716.288     141.755
  O        6.268     716.322     142.124
  H        4.751     708.781     141.617
  H        3.800     716.766     142.601
  H       -0.817     710.107     147.320
  H        3.454     713.574     144.004
  H        4.620     710.161     144.735
  H        2.884     710.091     142.467
  H       -0.462     707.857     146.894
  H        3.780     712.004     141.441
  H        0.875     707.370     145.922
  H        6.598     711.195     142.372
  H        6.743     713.712     142.695
  H        6.577     713.217     141.011
  P        4.658     711.265     139.027
  C        4.690     708.871     137.946
  O        5.074     710.229     137.889
  O        5.806     712.375     138.955
  O        3.301     711.854     138.827
  H        5.458     713.253     139.197
  H        5.072     708.356     137.089
  H        3.622     708.802     137.957
  H        5.085     708.426     138.835

 6  7  8  9  10  11  12  13  14  15  26  29  33  34 0
 6-311+G(2d,p)
 ****
 36  38  39  40  41 0
 6-311+G(2d,p)
 ****
 1  2  3  4  5  16  17  18  19  20  21  22  23  24  25 0
 3-21G
 ****
 27  28  30  31  32  35  37  42  43  44  45  46  47 0
 3-21G
 ****
 48  49 0
 3-21G
 ****


