%nproc=1
%NoSave
%Mem=1900MB
#P OB98/GEN NMR

erre ene a

0 1
  C     -191.865    -818.735     838.669
  O     -193.037    -819.336     839.186
  H     -192.047    -818.460     837.625
  H     -191.030    -819.436     838.703
  H     -191.619    -817.831     839.231
  P     -193.014    -819.893     840.686
  C     -194.721    -818.116     841.454
  O     -193.424    -818.674     841.643
  C     -194.849    -816.802     842.226
  O     -194.925    -817.122     843.637
  C     -193.641    -815.873     842.006
  O     -194.008    -814.562     841.592
  C     -192.856    -816.005     843.311
  O     -192.058    -814.882     843.629
  C     -193.947    -816.325     844.341
  N     -193.455    -817.038     845.522
  C     -193.501    -816.360     846.732
  O     -193.949    -815.226     846.894
  N     -193.016    -817.057     847.819
  C     -192.499    -818.315     847.793
  O     -192.079    -818.882     848.799
  C     -192.459    -818.966     846.475
  C     -192.926    -818.308     845.417
  O     -191.772    -820.616     841.089
  O     -194.299    -820.856     840.760
  H     -191.554    -815.100     844.445
  H     -194.014    -821.786     840.700
  H     -193.054    -816.578     848.705
  H     -192.043    -819.958     846.421
  H     -192.905    -818.759     844.426
  H     -194.435    -815.417     844.681
  H     -192.185    -816.865     843.215
  H     -193.019    -816.230     841.180
  H     -195.789    -816.312     841.944
  H     -195.454    -818.844     841.824
  H     -194.890    -817.943     840.387
  P     -194.344    -814.145     840.093
  C     -196.937    -814.038     840.490
  O     -195.848    -814.597     839.765
  O     -193.306    -814.480     839.078
  O     -194.450    -812.525     840.172
  H     -194.127    -812.189     839.308
  H     -197.855    -814.457     840.134
  H     -196.951    -812.977     840.350
  H     -196.824    -814.259     841.531

 6  7  8  9  10  11  12  13  14  15  16  26  31  32  33  34  35 0
 6-311+G(2d,p)
 ****
 36  37 0
 6-311+G(2d,p)
 ****
 1  2  3  4  5  17  18  19  20  21  22  23  24  25 0
 3-21G
 ****
 27  28  29  30  38  39  40  41  42  43  44  45 0
 3-21G
 ****


