%nproc=1
%NoSave
%Mem=1900MB
#P OB98/GEN NMR

erre ene a

0 1
  C      126.730     102.025    -205.628
  O      127.841     102.608    -204.980
  H      126.618     100.998    -205.271
  H      126.881     102.002    -206.711
  H      125.818     102.578    -205.389
  P      128.291     104.084    -205.421
  C      129.500     104.571    -203.181
  O      129.634     104.355    -204.577
  C      130.840     104.989    -202.580
  O      131.767     103.884    -202.565
  C      131.568     106.093    -203.341
  O      130.994     107.377    -203.157
  C      132.949     105.977    -202.717
  O      132.935     106.568    -201.405
  C      133.111     104.440    -202.630
  N      133.842     103.878    -203.763
  C      135.194     103.579    -203.551
  O      135.716     103.787    -202.457
  N      135.934     103.083    -204.597
  C      135.381     102.920    -205.757
  N      136.171     102.471    -206.772
  C      133.957     103.205    -206.020
  C      133.255     103.681    -204.994
  O      127.249     105.150    -205.323
  O      128.874     103.897    -206.900
  H      132.681     107.502    -201.515
  H      129.156     104.788    -207.223
  H      133.547     103.059    -207.009
  H      132.207     103.932    -205.114
  H      133.622     104.155    -201.703
  H      133.727     106.484    -203.294
  H      131.644     105.848    -204.406
  H      130.660     105.271    -201.535
  H      137.149     102.327    -206.565
  H      129.137     103.645    -202.726
  H      135.897     102.583    -207.742
  H      128.774     105.368    -202.991
  P      131.069     108.415    -204.381
  C      129.088     110.004    -203.798
  O      130.493     109.810    -203.836
  O      129.925     107.890    -205.364
  O      132.400     108.527    -205.055
  H      130.291     107.288    -206.041
  H      128.873     110.978    -203.412
  H      128.643     109.264    -203.166
  H      128.689     109.916    -204.787

 6  7  8  9  10  11  12  13  14  15  16  26  30  31  32  33  35 0
 6-311+G(2d,p)
 ****
 37  38 0
 6-311+G(2d,p)
 ****
 1  2  3  4  5  17  18  19  20  21  22  23  24  25 0
 3-21G
 ****
 27  28  29  34  36  39  40  41  42  43  44  45  46 0
 3-21G
 ****


