%nproc=1
%NoSave
%Mem=1900MB
#P OB98/GEN NMR

erre ene a

0 1
  C      551.330     -71.052     421.796
  O      551.362     -72.257     422.542
  P      551.805     -73.650     421.874
  C      549.430     -74.077     420.946
  O      550.797     -73.867     420.645
  C      548.901     -75.287     420.163
  O      547.454     -75.333     420.329
  C      549.192     -75.244     418.660
  O      549.412     -76.593     418.238
  C      547.899     -74.700     418.072
  O      547.742     -75.026     416.696
  C      546.868     -75.342     419.010
  N      545.586     -74.637     418.997
  C      544.678     -74.956     417.989
  O      544.956     -75.792     417.126
  N      543.452     -74.328     417.979
  C      543.199     -73.391     418.844
  N      541.960     -72.841     418.828
  C      544.180     -72.949     419.858
  C      545.325     -73.621     419.890
  O      551.898     -74.796     422.825
  O      553.176     -73.309     421.123
  H      548.515     -74.680     416.211
  H      553.969     -73.369     421.721
  H      543.933     -72.146     420.544
  H      546.096     -73.379     420.617
  H      546.709     -76.395     418.735
  H      547.890     -73.602     418.167
  H      550.068     -74.642     418.419
  H      549.309     -76.196     420.613
  H      541.268     -73.293     418.248
  H      548.867     -73.189     420.647
  H      541.585     -72.370     419.650
  H      549.305     -74.220     422.024
  P      550.414     -76.858     417.002
  C      548.738     -77.470     415.112
  O      549.627     -76.509     415.641
  O      550.461     -78.459     416.965
  O      551.795     -76.309     417.147
  H      551.309     -78.739     416.560
  H      548.296     -77.059     414.193
  H      547.927     -77.678     415.820
  H      549.270     -78.389     414.860
  H      551.009     -70.250     422.428
  H      550.648     -71.157     420.978
  H      552.309     -70.840     421.419

 3  4  5  6  7  8  9  10  11  12  13  23  27  28  29  30  32 0
 6-311+G(2d,p)
 ****
 34  35 0
 6-311+G(2d,p)
 ****
 1  2  14  15  16  17  18  19  20  21  22  24  25  26 0
 3-21G
 ****
 31  33  36  37  38  39  40  41  42  43  44  45  46 0
 3-21G
 ****


