%nproc=1
%NoSave
%Mem=1900MB
#P OB98/GEN NMR

erre ene a

0 1
  C      104.280     739.505    -335.052
  O      104.946     740.668    -335.500
  H      104.473     738.697    -335.764
  H      103.202     739.677    -335.010
  H      104.649     739.200    -334.066
  P      104.953     741.962    -334.555
  C      107.206     741.630    -333.336
  O      106.488     742.362    -334.323
  C      108.706     741.852    -333.517
  O      109.161     741.242    -334.747
  C      109.108     743.318    -333.602
  O      109.098     743.930    -332.335
  C      110.483     743.198    -334.249
  O      111.478     742.871    -333.264
  C      110.269     742.028    -335.232
  N      110.041     742.472    -336.606
  C      111.171     742.639    -337.399
  O      112.317     742.460    -336.992
  N      110.939     743.052    -338.686
  C      109.733     743.409    -339.213
  O      109.591     743.863    -340.344
  C      108.577     743.241    -338.317
  C      108.783     742.786    -337.077
  O      104.129     741.866    -333.314
  O      104.421     743.133    -335.516
  H      112.293     742.656    -333.759
  H      103.496     743.345    -335.282
  H      111.752     743.189    -339.273
  H      107.599     743.504    -338.700
  H      107.940     742.660    -336.404
  H      111.144     741.364    -335.227
  H      110.795     744.127    -334.730
  H      108.439     743.847    -334.298
  H      109.230     741.357    -332.681
  H      106.976     740.566    -333.455
  H      106.879     741.962    -332.345
  P      108.979     745.526    -332.223
  C      106.524     745.671    -332.982
  O      107.445     745.882    -331.911
  O      109.589     746.296    -333.345
  O      109.707     745.863    -330.840
  H      110.469     746.453    -331.004
  H      105.539     745.940    -332.663
  H      106.538     744.640    -333.266
  H      106.805     746.276    -333.819

 6  7  8  9  10  11  12  13  14  15  16  26  31  32  33  34  35 0
 6-311+G(2d,p)
 ****
 36  37 0
 6-311+G(2d,p)
 ****
 1  2  3  4  5  17  18  19  20  21  22  23  24  25 0
 3-21G
 ****
 27  28  29  30  38  39  40  41  42  43  44  45 0
 3-21G
 ****


