%nproc=1
%NoSave
%Mem=1900MB
#P OB98/GEN NMR

erre ene a

0 1
  C     -458.718    -430.930     293.580
  O     -458.794    -429.980     294.616
  H     -459.472    -430.679     292.824
  H     -458.935    -431.932     293.959
  H     -457.731    -430.912     293.110
  P     -457.825    -430.125     295.888
  C     -456.708    -427.838     295.529
  O     -457.540    -428.618     296.383
  C     -456.967    -426.346     295.732
  O     -458.170    -425.956     295.015
  C     -457.154    -425.937     297.202
  O     -456.365    -424.784     297.492
  C     -458.632    -425.591     297.291
  O     -458.929    -424.694     298.359
  C     -458.882    -425.052     295.880
  N     -460.305    -424.982     295.565
  C     -461.070    -424.114     296.347
  O     -460.541    -423.452     297.240
  N     -462.424    -424.056     296.136
  C     -462.975    -424.829     295.254
  N     -464.323    -424.742     295.118
  C     -462.207    -425.786     294.428
  C     -460.890    -425.806     294.628
  O     -456.605    -430.954     295.653
  O     -458.760    -430.705     297.052
  H     -459.828    -424.314     298.207
  H     -458.195    -431.147     297.725
  H     -462.714    -426.410     293.709
  H     -460.241    -426.471     294.064
  H     -458.450    -424.050     295.759
  H     -459.218    -426.507     297.450
  H     -456.886    -426.733     297.899
  H     -456.139    -425.789     295.271
  H     -464.813    -424.079     295.710
  H     -456.915    -428.125     294.488
  H     -464.864    -425.313     294.480
  H     -455.668    -428.057     295.769
  P     -456.225    -424.387     299.045
  C     -453.641    -424.427     299.237
  O     -454.823    -423.642     299.243
  O     -456.016    -425.807     299.767
  O     -457.419    -423.666     299.585
  H     -456.810    -426.031     300.288
  H     -452.791    -423.793     299.379
  H     -453.554    -424.934     298.299
  H     -453.686    -425.146     300.028

 6  7  8  9  10  11  12  13  14  15  16  26  30  31  32  33  35 0
 6-311+G(2d,p)
 ****
 37  38 0
 6-311+G(2d,p)
 ****
 1  2  3  4  5  17  18  19  20  21  22  23  24  25 0
 3-21G
 ****
 27  28  29  34  36  39  40  41  42  43  44  45  46 0
 3-21G
 ****


