%nproc=1
%NoSave
%Mem=1900MB
#P OB98/GEN NMR

erre ene a

0 1
  C      -36.599    -351.886     220.067
  O      -37.023    -353.236     220.177
  P      -37.340    -353.815     221.640
  C      -39.907    -353.470     221.335
  O      -38.745    -353.179     222.094
  C      -40.902    -354.295     222.159
  O      -41.124    -353.611     223.425
  C      -42.282    -354.492     221.512
  O      -42.760    -355.772     221.932
  C      -43.123    -353.396     222.140
  O      -44.521    -353.664     222.065
  C      -42.547    -353.379     223.553
  N      -46.091    -350.205     225.290
  C      -46.232    -351.372     224.562
  N      -47.498    -351.780     224.311
  N      -45.220    -352.082     224.118
  C      -44.015    -351.550     224.460
  C      -43.747    -350.386     225.132
  C      -44.871    -349.635     225.652
  O      -44.799    -348.644     226.369
  N      -42.400    -350.140     225.204
  C      -41.844    -351.195     224.643
  N      -42.787    -352.102     224.211
  O      -36.266    -353.061     222.561
  O      -37.271    -355.306     221.784
  H      -44.731    -353.894     221.133
  H      -35.467    -353.599     222.684
  H      -46.911    -349.714     225.622
  H      -40.791    -351.364     224.516
  H      -42.967    -354.165     224.192
  H      -42.935    -352.448     221.622
  H      -48.316    -351.302     224.657
  H      -42.254    -354.438     220.419
  H      -47.624    -352.657     223.815
  H      -40.440    -355.263     222.389
  H      -39.621    -354.057     220.455
  H      -40.372    -352.536     220.993
  P      -43.828    -356.518     220.993
  C      -41.955    -357.018     219.265
  O      -43.255    -356.501     219.493
  O      -45.043    -355.480     220.938
  O      -44.286    -357.848     221.501
  H      -45.893    -355.968     220.859
  H      -41.868    -357.303     218.208
  H      -41.751    -357.892     219.884
  H      -41.216    -356.241     219.480
  H      -36.428    -351.649     219.038
  H      -35.693    -351.751     220.620
  H      -37.357    -351.241     220.461

 3  4  5  6  7  8  9  10  11  12  23  26  30  31 0
 6-311+G(2d,p)
 ****
 33  35  36  37  38 0
 6-311+G(2d,p)
 ****
 1  2  13  14  15  16  17  18  19  20  21  22  24  25 0
 3-21G
 ****
 27  28  29  32  34  39  40  41  42  43  44  45  46  47  48  49 0
 3-21G
 ****


