%nproc=1
%NoSave
%Mem=1900MB
#P OB98/GEN NMR

erre ene a

0 1
  C      308.846    -171.504    -339.984
  O      309.092    -172.442    -341.036
  P      310.576    -172.572    -341.633
  C      310.558    -175.141    -341.840
  O      310.656    -173.900    -342.531
  C      310.252    -176.285    -342.818
  O      308.873    -176.207    -343.282
  C      311.151    -176.247    -344.066
  O      311.419    -177.579    -344.532
  C      310.270    -175.565    -345.097
  O      310.700    -175.844    -346.429
  C      308.901    -176.142    -344.724
  N      306.404    -174.525    -348.899
  C      307.429    -175.391    -348.748
  N      308.027    -175.788    -347.599
  C      307.454    -175.205    -346.536
  C      306.398    -174.307    -346.536
  C      305.867    -173.955    -347.789
  N      304.842    -173.048    -347.946
  N      306.081    -173.918    -345.252
  C      306.972    -174.532    -344.487
  N      307.798    -175.347    -345.215
  O      311.685    -172.402    -340.648
  O      310.609    -171.407    -342.740
  H      310.787    -176.810    -346.507
  H      311.475    -170.949    -342.698
  H      307.824    -175.816    -349.663
  H      307.059    -174.412    -343.416
  H      308.777    -177.163    -345.107
  H      310.294    -174.477    -344.946
  H      312.105    -175.721    -343.924
  H      310.366    -177.243    -342.290
  H      309.769    -175.076    -341.086
  H      304.608    -172.772    -348.888
  H      304.537    -172.510    -347.151
  H      311.489    -175.320    -341.294
  P      312.928    -178.108    -344.319
  C      312.135    -179.985    -342.674
  O      312.789    -179.641    -343.875
  O      313.742    -177.231    -343.423
  O      313.476    -178.175    -345.821
  H      312.890    -178.646    -346.445
  H      312.036    -181.069    -342.622
  H      311.136    -179.542    -342.636
  H      312.726    -179.645    -341.812
  H      307.814    -171.544    -339.705
  H      309.086    -170.518    -340.322
  H      309.454    -171.749    -339.138

 3  4  5  6  7  8  9  10  11  12  22  25  29  30  31  32 0
 6-311+G(2d,p)
 ****
 33  36  37 0
 6-311+G(2d,p)
 ****
 1  2  13  14  15  16  17  18  19  20  21  23  24  26 0
 3-21G
 ****
 27  28  34  35  38  39  40  41  42  43  44  45  46  47  48 0
 3-21G
 ****


