%nproc=1
%NoSave
%Mem=1900MB
#P OB98/GEN NMR

erre ene a

0 1
  C     -108.779     111.391     -83.966
  O     -109.416     111.286     -82.703
  P     -109.757     112.647     -81.924
  C     -111.882     113.164     -83.303
  O     -110.566     113.573     -82.957
  C     -112.838     114.351     -83.299
  O     -114.105     113.936     -83.880
  C     -113.136     114.919     -81.902
  O     -113.108     116.352     -81.959
  C     -114.571     114.496     -81.645
  O     -115.226     115.361     -80.724
  C     -115.132     114.538     -83.067
  N     -119.775     113.914     -81.184
  C     -118.833     114.883     -80.905
  N     -119.157     115.780     -79.946
  N     -117.676     114.969     -81.507
  C     -117.501     114.026     -82.465
  C     -118.361     113.020     -82.839
  C     -119.613     112.903     -82.121
  O     -120.449     112.013     -82.259
  N     -117.838     112.270     -83.862
  C     -116.664     112.817     -84.104
  N     -116.392     113.857     -83.250
  O     -108.328     113.360     -81.812
  O     -110.381     112.474     -80.583
  H     -114.683     115.380     -79.914
  H     -108.128     113.553     -80.876
  H     -120.642     113.885     -80.678
  H     -115.967     112.478     -84.860
  H     -115.263     115.577     -83.397
  H     -114.579     113.480     -81.236
  H     -120.045     115.794     -79.470
  H     -112.455     114.568     -81.121
  H     -118.489     116.512     -79.744
  H     -112.429     115.131     -83.954
  H     -112.230     112.421     -82.578
  H     -111.860     112.703     -84.296
  P     -112.781     117.104     -80.578
  C     -110.345     117.768     -81.218
  O     -111.195     116.999     -80.390
  O     -113.366     116.112     -79.469
  O     -113.362     118.475     -80.483
  H     -113.579     116.600     -78.652
  H     -110.900     118.498     -81.814
  H     -109.805     117.100     -81.892
  H     -109.625     118.299     -80.590
  H     -108.615     110.412     -84.365
  H     -107.840     111.892     -83.852
  H     -109.402     111.949     -84.634

 3  4  5  6  7  8  9  10  11  12  23  26  30  31  33  0
 6-311+G(2d,p)
 ****
 35  36  37  38 0
 6-311+G(2d,p)
 ****
 1  2  13  14  15  16  17  18  19  20  21  22  24  25  27  28  29 0
 3-21G
 ****
 32  34  39  40  41  42  43  44  45  46  47  48  49 0
 3-21G
 ****


