%nproc=1
%NoSave
%Mem=1900MB
#P OB98/GEN NMR

erre ene a

0 1
  C      651.183    -257.533    -218.956
  O      650.293    -258.185    -219.845
  H      650.605    -257.048    -218.171
  H      651.767    -256.774    -219.487
  H      651.861    -258.260    -218.494
  P      650.910    -258.976    -221.092
  C      650.031    -257.031    -222.552
  O      651.124    -257.883    -222.245
  C      650.193    -256.433    -223.942
  O      651.331    -255.540    -223.963
  C      650.422    -257.464    -225.038
  O      649.195    -258.036    -225.442
  C      651.060    -256.592    -226.107
  O      650.047    -255.808    -226.762
  C      651.977    -255.689    -225.260
  N      656.775    -255.604    -226.895
  C      655.652    -254.982    -227.407
  N      655.826    -254.274    -228.552
  N      654.465    -255.064    -226.867
  C      654.432    -255.866    -225.782
  C      655.471    -256.547    -225.189
  C      656.789    -256.398    -225.768
  O      657.817    -256.923    -225.325
  N      655.039    -257.315    -224.137
  C      653.741    -257.064    -224.068
  N      653.329    -256.202    -225.056
  O      650.157    -260.187    -221.552
  O      652.402    -259.328    -220.629
  H      650.484    -255.371    -227.516
  H      652.446    -260.209    -220.218
  H      657.664    -255.515    -227.375
  H      653.067    -257.479    -223.327
  H      652.081    -254.682    -225.693
  H      651.581    -257.167    -226.878
  H      656.633    -254.407    -229.141
  H      651.153    -258.230    -224.732
  H      655.008    -253.845    -228.965
  H      649.307    -255.822    -224.150
  H      649.998    -256.245    -221.795
  H      649.086    -257.593    -222.507
  P      649.149    -259.447    -226.224
  C      647.897    -258.284    -228.182
  O      649.035    -259.045    -227.775
  O      648.106    -260.392    -225.755
  O      650.641    -260.006    -226.123
  H      650.802    -260.554    -225.315
  H      647.954    -258.091    -229.233
  H      647.879    -257.356    -227.650
  H      647.005    -258.835    -227.968

 6  7  8  9  10  11  12  13  14  15  26  29  33  34 0
 6-311+G(2d,p)
 ****
 36  38  39  40  41 0
 6-311+G(2d,p)
 ****
 1  2  3  4  5  16  17  18  19  20  21  22  23  24  25 0
 3-21G
 ****
 27  28  30  31  32  35  37  42  43  44  45  46  47 0
 3-21G
 ****
 48  49 0
 3-21G
 ****


