%nproc=1
%NoSave
%Mem=1900MB
#P OB98/GEN NMR

erre ene a

0 1
  C     -152.506     343.193    -114.672
  O     -153.363     343.873    -115.571
  H     -152.558     342.121    -114.879
  H     -152.825     343.370    -113.642
  H     -151.473     343.529    -114.811
  P     -153.409     345.470    -115.446
  C     -155.698     345.259    -114.255
  O     -154.974     345.812    -115.345
  C     -157.184     345.166    -114.594
  O     -157.735     346.477    -114.813
  C     -157.495     344.369    -115.856
  O     -157.484     342.975    -115.595
  C     -158.893     344.871    -116.175
  O     -159.854     344.200    -115.339
  C     -158.809     346.362    -115.784
  N     -160.903     349.151    -119.553
  C     -161.427     348.214    -118.736
  N     -160.803     347.481    -117.786
  C     -159.498     347.802    -117.719
  C     -158.825     348.739    -118.489
  C     -159.585     349.444    -119.435
  N     -159.053     350.410    -120.263
  N     -157.491     348.789    -118.141
  C     -157.374     347.939    -117.144
  N     -158.553     347.285    -116.875
  O     -152.629     346.223    -116.470
  O     -152.918     345.673    -113.935
  H     -159.857     343.257    -115.593
  H     -153.286     344.977    -113.360
  H     -162.491     348.024    -118.859
  H     -156.468     347.767    -116.571
  H     -159.731     346.705    -115.299
  H     -159.179     344.676    -117.210
  H     -156.821     344.643    -116.676
  H     -157.702     344.737    -113.726
  H     -155.562     345.862    -113.354
  H     -159.628     350.741    -121.024
  H     -158.050     350.537    -120.260
  H     -155.291     344.260    -114.067
  P     -156.233     342.073    -116.025
  C     -157.533     341.148    -118.047
  O     -156.835     340.828    -116.852
  O     -155.311     341.694    -114.920
  O     -155.487     342.929    -117.156
  H     -154.522     342.836    -117.073
  H     -157.884     340.248    -118.507
  H     -156.875     341.658    -118.719
  H     -158.366     341.779    -117.816

 6  7  8  9  10  11  12  13  14  15  25  28  32  33  34  35 0
 6-311+G(2d,p)
 ****
 36  39  40 0
 6-311+G(2d,p)
 ****
 1  2  3  4  5  16  17  18  19  20  21  22  23  24 0
 3-21G
 ****
 26  27  29  30  31  37  38  41  42  43  44  45  46  47 0
 3-21G
 ****
 48 0
 3-21G
 ****


