%nproc=1
%NoSave
%Mem=1900MB
#P OB98/GEN NMR

erre ene a

0 1
  C     -791.926     506.095     212.930
  O     -791.776     506.776     214.161
  H     -791.268     505.222     212.928
  H     -791.644     506.746     212.101
  H     -792.956     505.759     212.807
  P     -792.582     508.148     214.330
  C     -790.384     509.377     214.978
  O     -791.530     509.336     214.133
  C     -789.593     510.658     214.716
  O     -788.943     510.572     213.429
  C     -790.452     511.913     214.655
  O     -790.815     512.397     215.935
  C     -789.526     512.865     213.917
  O     -788.605     513.504     214.811
  C     -788.799     511.926     212.935
  N     -789.297     512.069     211.572
  C     -788.666     513.037     210.796
  O     -787.732     513.726     211.205
  N     -789.152     513.207     209.532
  C     -790.227     512.550     209.000
  O     -790.654     512.789     207.876
  C     -790.874     511.558     209.871
  C     -790.387     511.367     211.104
  O     -792.910     508.188     215.899
  O     -793.820     508.264     213.499
  H     -793.854     507.999     216.044
  H     -787.985     514.009     214.246
  H     -788.698     513.890     208.949
  H     -791.733     511.026     209.478
  H     -790.856     510.647     211.768
  H     -787.721     512.137     212.931
  H     -790.087     513.649     213.410
  H     -791.345     511.738     214.034
  H     -788.822     510.757     215.488
  H     -789.741     508.516     214.774
  H     -790.719     509.330     216.020
  P     -792.052     513.419     216.034
  C     -790.587     515.308     217.138
  O     -791.400     514.886     216.053
  O     -792.529     513.164     217.536
  O     -793.089     513.183     214.978
  H     -791.805     512.852     218.097
  H     -790.251     516.309     216.964
  H     -789.742     514.658     217.224
  H     -791.156     515.276     218.044

 6  7  8  9  10  11  12  13  14  15  16  27  31  32  33  34  35 0
 6-311+G(2d,p)
 ****
 36  37 0
 6-311+G(2d,p)
 ****
 1  2  3  4  5  17  18  19  20  21  22  23  24  25 0
 3-21G
 ****
 26  28  29  30  38  39  40  41  42  43  44  45 0
 3-21G
 ****


