%nproc=1
%NoSave
%Mem=1900MB
#P OB98/GEN NMR

erre ene a

0 1
  C      -57.825    -531.477     228.048
  O      -57.801    -530.232     228.711
  H      -56.797    -531.839     227.939
  H      -58.261    -531.364     227.056
  H      -58.389    -532.216     228.624
  P      -59.185    -529.571     229.168
  C      -58.714    -529.860     231.688
  O      -59.555    -530.196     230.597
  C      -58.813    -530.914     232.796
  O      -58.483    -532.216     232.228
  C      -57.850    -530.685     233.977
  O      -58.478    -531.231     235.147
  C      -56.657    -531.530     233.550
  O      -55.724    -531.716     234.576
  C      -57.407    -532.763     233.022
  N      -56.604    -533.698     232.238
  C      -55.864    -534.654     232.934
  O      -55.847    -534.773     234.154
  N      -55.116    -535.505     232.148
  C      -55.058    -535.497     230.787
  O      -54.397    -536.306     230.144
  C      -55.850    -534.463     230.115
  C      -56.585    -533.620     230.859
  O      -60.284    -529.609     228.158
  O      -58.781    -528.065     229.538
  H      -59.036    -527.470     228.806
  H      -55.279    -530.860     234.771
  H      -54.581    -536.207     232.636
  H      -55.819    -534.422     229.034
  H      -57.191    -532.851     230.393
  H      -57.868    -533.304     233.856
  H      -56.115    -531.025     232.742
  H      -57.619    -529.627     234.147
  H      -59.853    -530.975     233.140
  H      -59.040    -528.887     232.083
  H      -57.681    -529.777     231.340
  P      -59.480    -530.395     236.080
  C      -61.503    -531.925     235.534
  O      -60.974    -530.606     235.522
  O      -59.110    -528.964     236.247
  O      -59.491    -531.162     237.487
  H      -59.720    -530.534     238.200
  H      -62.497    -531.914     235.137
  H      -61.524    -532.292     236.539
  H      -60.887    -532.562     234.935

 6  7  8  9  10  11  12  13  14  15  16  27  31  32  33  34  35 0
 6-311+G(2d,p)
 ****
 36  37 0
 6-311+G(2d,p)
 ****
 1  2  3  4  5  17  18  19  20  21  22  23  24  25 0
 3-21G
 ****
 26  28  29  30  38  39  40  41  42  43  44  45 0
 3-21G
 ****


