%nproc=1
%NoSave
%Mem=1900MB
#P OB98/GEN NMR

erre ene a

0 1
  C        2.076     450.020      38.598
  O        3.415     449.758      38.247
  H        1.752     450.929      38.088
  H        2.004     450.180      39.677
  H        1.416     449.199      38.305
  P        3.994     448.284      38.470
  C        6.013     449.225      39.777
  O        4.928     448.305      39.778
  C        6.102     449.995      41.094
  O        4.872     450.720      41.317
  C        6.297     449.074      42.302
  O        7.649     448.754      42.584
  C        5.683     449.899      43.430
  O        6.653     450.778      44.022
  C        4.588     450.707      42.722
  N        0.755     450.019      46.035
  C        2.041     450.461      46.278
  N        2.346     450.713      47.570
  N        2.937     450.618      45.340
  C        2.516     450.233      44.115
  C        1.272     449.761      43.757
  C        0.263     449.659      44.787
  O       -0.892     449.287      44.621
  N        1.226     449.428      42.424
  C        2.460     449.617      42.002
  N        3.258     450.181      42.971
  O        5.067     448.123      37.285
  O        2.984     447.179      38.422
  H        7.062     451.300      43.304
  H        5.113     447.188      37.014
  H        0.101     449.945      46.792
  H        2.817     449.407      41.002
  H        4.583     451.751      43.058
  H        5.316     449.251      44.229
  H        1.724     450.528      48.339
  H        5.709     448.160      42.189
  H        3.327     450.856      47.814
  H        6.904     450.740      41.025
  H        5.834     449.914      38.952
  H        6.953     448.704      39.574
  P        8.185     447.256      42.433
  C        8.069     447.020      45.045
  O        7.840     446.459      43.770
  O        9.774     447.432      42.506
  O        7.756     446.543      41.190
  H       10.161     447.431      41.612
  H        7.770     446.323      45.800
  H        7.500     447.921      45.146
  H        9.110     447.241      45.156

 6  7  8  9  10  11  12  13  14  15  26  29  33  34 0
 6-311+G(2d,p)
 ****
 36  38  39  40  41 0
 6-311+G(2d,p)
 ****
 1  2  3  4  5  16  17  18  19  20  21  22  23  24  25 0
 3-21G
 ****
 27  28  30  31  32  35  37  42  43  44  45  46  47 0
 3-21G
 ****
 48  49 0
 3-21G
 ****


