%nproc=1
%NoSave
%Mem=1900MB
#P OB98/GEN NMR

erre ene a

0 1
  C     -106.969    -531.072    -134.106
  O     -107.714    -530.904    -132.889
  P     -108.045    -532.194    -131.988
  C     -107.337    -533.096    -129.632
  O     -107.133    -532.145    -130.669
  C     -106.565    -532.684    -128.373
  O     -105.142    -532.666    -128.631
  C     -106.894    -531.284    -127.867
  O     -108.139    -531.247    -127.182
  C     -105.694    -531.002    -126.965
  O     -105.877    -531.593    -125.668
  C     -104.555    -531.706    -127.728
  N     -103.685    -530.768    -128.437
  C     -102.890    -529.945    -127.650
  O     -102.924    -529.940    -126.423
  N     -102.054    -529.093    -128.331
  C     -102.000    -528.942    -129.691
  O     -101.246    -528.142    -130.240
  C     -102.924    -529.779    -130.463
  C     -103.715    -530.635    -129.815
  O     -107.349    -533.371    -132.826
  O     -109.494    -532.483    -131.774
  H     -106.037    -532.545    -125.815
  H     -107.817    -534.214    -132.660
  H     -101.448    -528.509    -127.782
  H     -102.924    -529.673    -131.543
  H     -104.406    -531.268    -130.373
  H     -103.937    -532.288    -127.031
  H     -105.530    -529.928    -126.810
  H     -106.889    -530.578    -128.708
  H     -106.765    -533.435    -127.590
  H     -106.977    -534.076    -129.965
  H     -108.411    -533.172    -129.421
  P     -109.406    -530.733    -128.025
  C     -110.962    -531.958    -129.747
  O     -110.049    -532.057    -128.671
  O     -108.680    -529.980    -129.240
  O     -110.333    -529.873    -127.228
  H     -107.845    -530.417    -129.492
  H     -110.726    -531.108    -130.395
  H     -111.975    -531.839    -129.346
  H     -110.916    -532.872    -130.337
  H     -106.838    -530.121    -134.578
  H     -107.502    -531.726    -134.763
  H     -106.011    -531.494    -133.883

 3  4  5  6  7  8  9  10  11  12  13  23  28  29  30  31  32 0
 6-311+G(2d,p)
 ****
 33  34 0
 6-311+G(2d,p)
 ****
 1  2  14  15  16  17  18  19  20  21  22  24  25  26 0
 3-21G
 ****
 27  35  36  37  38  39  40  41  42  43  44  45 0
 3-21G
 ****


