%nproc=1
%NoSave
%Mem=1900MB
#P OB98/GEN NMR

erre ene a

0 1
  C      -98.182      23.592    -106.658
  O      -98.412      22.208    -106.512
  H      -98.577      24.110    -105.780
  H      -98.701      23.966    -107.545
  H      -97.111      23.800    -106.739
  P      -97.774      21.231    -107.614
  C      -98.032      20.974    -110.185
  O      -98.578      21.492    -108.980
  C      -99.148      20.452    -111.092
  O      -99.729      19.266    -110.487
  C     -100.276      21.463    -111.324
  O     -100.719      21.352    -112.680
  C     -101.379      20.991    -110.391
  O     -102.676      21.402    -110.823
  C     -101.151      19.475    -110.386
  N     -101.704      18.854    -109.186
  C     -102.339      17.618    -109.352
  O     -102.417      17.107    -110.473
  N     -102.919      17.017    -108.264
  C     -102.943      17.636    -107.126
  N     -103.559      17.003    -106.089
  C     -102.345      18.973    -106.917
  C     -101.743      19.511    -107.978
  O      -98.277      19.782    -107.163
  O      -96.288      21.303    -107.748
  H     -103.327      21.137    -110.137
  H      -97.624      19.093    -107.390
  H     -102.413      19.460    -105.955
  H     -101.286      20.492    -107.924
  H     -101.619      19.011    -111.268
  H     -101.211      21.404    -109.391
  H      -99.978      22.495    -111.121
  H      -98.704      20.138    -112.043
  H     -103.970      16.096    -106.276
  H      -97.357      20.146    -109.943
  H     -103.675      17.409    -105.173
  H      -97.462      21.758    -110.693
  P     -100.367      22.577    -113.655
  C     -101.402      24.931    -114.014
  O     -101.103      23.888    -113.098
  O     -101.174      22.226    -114.992
  O      -98.904      22.734    -113.917
  H     -100.553      21.956    -115.696
  H     -101.889      25.731    -113.497
  H     -102.047      24.558    -114.781
  H     -100.495      25.290    -114.454

 6  7  8  9  10  11  12  13  14  15  16  26  30  31  32  33  35 0
 6-311+G(2d,p)
 ****
 37  38 0
 6-311+G(2d,p)
 ****
 1  2  3  4  5  17  18  19  20  21  22  23  24  25 0
 3-21G
 ****
 27  28  29  34  36  39  40  41  42  43  44  45  46 0
 3-21G
 ****


