%nproc=1
%NoSave
%Mem=1900MB
#P OB98/GEN NMR

erre ene a

0 1
  C       61.551     170.179    -171.360
  O       62.058     171.176    -170.494
  H       61.722     170.464    -172.401
  H       62.073     169.239    -171.161
  H       60.483     170.034    -171.184
  P       61.448     172.650    -170.652
  C       61.472     174.440    -172.530
  O       61.614     173.065    -172.198
  C       61.708     174.640    -174.025
  O       63.112     174.399    -174.303
  C       60.876     173.719    -174.936
  O       60.079     174.497    -175.834
  C       61.910     172.955    -175.748
  O       61.541     172.790    -177.116
  C       63.170     173.803    -175.605
  N       66.054     171.263    -178.953
  C       65.167     172.266    -179.121
  N       64.510     172.974    -178.178
  C       64.870     172.569    -176.946
  C       65.777     171.577    -176.616
  C       66.373     170.893    -177.691
  N       67.237     169.833    -177.520
  N       65.879     171.441    -175.244
  C       65.012     172.306    -174.755
  N       64.366     172.996    -175.747
  O       62.519     173.574    -169.899
  O       60.075     172.831    -170.094
  H       61.413     173.685    -177.483
  H       62.058     174.183    -169.292
  H       64.948     172.534    -180.151
  H       64.783     172.440    -173.705
  H       63.212     174.611    -176.346
  H       62.047     171.959    -175.305
  H       60.234     173.032    -174.370
  H       61.509     175.692    -174.267
  H       62.207     175.030    -171.971
  H       67.525     169.325    -178.343
  H       67.392     169.480    -176.586
  H       60.468     174.772    -172.246
  P       58.482     174.335    -175.708
  C       56.755     172.430    -176.121
  O       58.117     172.836    -176.150
  O       57.936     175.222    -176.923
  O       57.930     174.781    -174.395
  H       57.038     175.548    -176.722
  H       56.679     171.412    -176.441
  H       56.183     173.053    -176.776
  H       56.377     172.519    -175.124

 6  7  8  9  10  11  12  13  14  15  25  28  32  33  34  35 0
 6-311+G(2d,p)
 ****
 36  39  40 0
 6-311+G(2d,p)
 ****
 1  2  3  4  5  16  17  18  19  20  21  22  23  24 0
 3-21G
 ****
 26  27  29  30  31  37  38  41  42  43  44  45  46  47  48 0
 3-21G
 ****


