%nproc=1
%NoSave
%Mem=1900MB
#P OB98/GEN NMR

erre ene a

0 1
  C      176.329    -135.881    -105.075
  O      177.570    -136.348    -105.614
  P      177.657    -136.546    -107.203
  C      178.158    -135.046    -109.271
  O      178.207    -135.192    -107.856
  C      178.488    -133.605    -109.664
  O      177.573    -132.675    -109.057
  C      179.868    -133.162    -109.207
  O      180.868    -133.684    -110.062
  C      179.747    -131.644    -109.257
  O      180.125    -131.122    -110.543
  C      178.246    -131.405    -108.986
  N      178.002    -130.746    -107.714
  C      176.950    -129.824    -107.692
  O      176.307    -129.593    -108.718
  N      176.674    -129.169    -106.519
  C      177.400    -129.398    -105.467
  N      177.083    -128.716    -104.336
  C      178.535    -130.343    -105.457
  C      178.780    -130.976    -106.603
  O      176.121    -136.576    -107.655
  O      178.377    -137.788    -107.618
  H      179.435    -131.432    -111.165
  H      176.005    -137.166    -108.421
  H      179.116    -130.494    -104.559
  H      179.594    -131.687    -106.686
  H      177.811    -130.779    -109.777
  H      180.401    -131.166    -108.521
  H      180.042    -133.486    -108.173
  H      178.409    -133.515    -110.757
  H      176.300    -128.075    -104.380
  H      177.167    -135.315    -109.642
  H      177.584    -128.811    -103.464
  H      178.865    -135.749    -109.722
  P      181.894    -134.749    -109.447
  C      181.587    -137.166    -108.640
  O      181.125    -136.155    -109.517
  O      181.825    -134.414    -107.881
  O      183.293    -134.727    -109.961
  H      182.487    -134.939    -107.397
  H      180.861    -137.984    -108.637
  H      181.684    -136.781    -107.624
  H      182.548    -137.550    -108.990
  H      176.412    -135.795    -104.012
  H      175.551    -136.575    -105.317
  H      176.096    -134.924    -105.493

 3  4  5  6  7  8  9  10  11  12  13  21  23  27  28  29  30  32 0
 6-311+G(2d,p)
 ****
 34  35 0
 6-311+G(2d,p)
 ****
 1  2  14  15  16  17  18  19  20  22  24  25  26 0
 3-21G
 ****
 31  33  36  37  38  39  40  41  42  43  44  45  46 0
 3-21G
 ****


