%nproc=1
%NoSave
%Mem=1900MB
#P OB98/GEN NMR

erre ene a

0 1
  C      -27.961     415.056    -694.737
  O      -28.811     416.184    -694.744
  H      -26.926     415.398    -694.680
  H      -28.091     414.471    -695.650
  H      -28.169     414.430    -693.862
  P      -30.391     415.961    -694.890
  C      -30.379     417.380    -697.043
  O      -30.958     417.189    -695.755
  C      -30.480     418.863    -697.451
  O      -31.882     419.168    -697.665
  C      -29.943     419.811    -696.362
  O      -28.967     420.729    -696.855
  C      -31.212     420.394    -695.739
  O      -31.052     421.664    -695.147
  C      -32.217     420.344    -696.903
  N      -33.612     420.308    -696.475
  C      -34.249     421.531    -696.267
  O      -33.736     422.640    -696.438
  N      -35.552     421.452    -695.848
  C      -36.259     420.308    -695.621
  O      -37.430     420.302    -695.248
  C      -35.526     419.051    -695.832
  C      -34.255     419.101    -696.245
  O      -31.130     415.700    -693.618
  O      -30.512     414.719    -695.901
  H      -31.943     422.033    -694.993
  H      -30.721     413.906    -695.400
  H      -36.030     422.331    -695.699
  H      -36.055     418.124    -695.650
  H      -33.685     418.201    -696.415
  H      -32.088     421.218    -697.549
  H      -31.555     419.702    -694.946
  H      -29.393     419.248    -695.595
  H      -29.963     419.002    -698.407
  H      -30.925     416.752    -697.756
  H      -29.330     417.075    -697.030
  P      -27.392     420.580    -696.647
  C      -27.614     422.283    -694.661
  O      -26.871     421.822    -695.795
  O      -26.614     420.223    -697.873
  O      -27.269     419.333    -695.618
  H      -26.436     418.862    -695.841
  H      -27.111     423.119    -694.221
  H      -27.693     421.495    -693.942
  H      -28.593     422.580    -694.973

 6  7  8  9  10  11  12  13  14  15  16  26  31  32  33  34  35 0
 6-311+G(2d,p)
 ****
 36  37 0
 6-311+G(2d,p)
 ****
 1  2  3  4  5  17  18  19  20  21  22  23  24  25 0
 3-21G
 ****
 27  28  29  30  38  39  40  41  42  43  44  45 0
 3-21G
 ****


