%nproc=1
%NoSave
%Mem=1900MB
#P OB98/GEN NMR

erre ene a

0 1
  C      376.373      84.970     337.814
  O      376.305      85.018     336.388
  P      375.700      86.333     335.698
  C      377.429      88.239     335.477
  O      376.873      87.070     334.883
  C      378.121      89.106     334.414
  O      378.396      90.414     334.985
  C      379.474      88.576     333.929
  O      379.489      87.678     332.821
  C      380.151      89.862     333.456
  O      379.716      90.175     332.119
  C      379.627      90.918     334.425
  N      383.177      94.234     336.030
  C      382.407      94.207     334.922
  N      381.485      93.284     334.570
  C      381.386      92.328     335.505
  C      382.107      92.227     336.685
  C      383.045      93.240     336.940
  N      383.840      93.265     338.059
  N      381.735      91.098     337.387
  C      380.822      90.518     336.631
  N      380.567      91.230     335.493
  O      374.879      87.216     336.578
  O      374.804      85.721     334.515
  H      380.139      91.022     331.881
  H      373.994      86.262     334.422
  H      382.550      95.028     334.226
  H      380.323      89.589     336.872
  H      379.396      91.864     333.922
  H      381.240      89.771     333.419
  H      380.048      88.140     334.757
  H      377.447      89.241     333.563
  H      378.150      87.950     336.246
  H      384.521      94.003     338.144
  H      383.795      92.498     338.719
  H      376.620      88.767     335.984
  P      380.194      86.241     332.919
  C      378.886      84.566     334.442
  O      379.007      85.196     333.188
  O      381.323      86.157     333.883
  O      380.593      85.947     331.400
  H      379.837      85.795     330.806
  H      377.907      84.072     334.493
  H      378.955      85.296     335.253
  H      379.668      83.812     334.554
  H      376.797      84.036     338.120
  H      375.388      85.065     338.221
  H      376.985      85.773     338.169

 3  4  5  6  7  8  9  10  11  12  22  25  29  30  31  32 0
 6-311+G(2d,p)
 ****
 33  36  37 0
 6-311+G(2d,p)
 ****
 1  2  13  14  15  16  17  18  19  20  21  23  24  26 0
 3-21G
 ****
 27  28  34  35  38  39  40  41  42  43  44  45  46  47  48 0
 3-21G
 ****


