%nproc=1
%NoSave
%Mem=1900MB
#P OB98/GEN NMR

erre ene a

0 1
  C     -283.266     257.407    -794.723
  O     -283.806     258.713    -794.932
  P     -285.165     259.097    -794.178
  C     -284.389     261.152    -792.697
  O     -285.146     260.642    -793.774
  C     -283.992     262.613    -793.002
  O     -282.806     262.645    -793.829
  C     -285.089     263.395    -793.737
  O     -286.022     263.963    -792.846
  C     -284.267     264.413    -794.509
  O     -283.856     265.481    -793.636
  C     -283.043     263.564    -794.935
  N     -283.157     262.777    -796.190
  C     -282.961     263.401    -797.425
  O     -282.711     264.591    -797.560
  N     -283.058     262.584    -798.523
  C     -283.155     261.230    -798.528
  O     -283.181     260.546    -799.540
  C     -283.192     260.608    -797.198
  C     -283.210     261.383    -796.108
  O     -285.053     258.339    -792.770
  O     -286.418     258.722    -794.921
  H     -283.454     266.171    -794.196
  H     -285.751     257.652    -792.694
  H     -282.996     263.036    -799.419
  H     -283.221     259.518    -797.142
  H     -283.242     260.932    -795.118
  H     -282.148     264.191    -795.041
  H     -284.853     264.873    -795.297
  H     -285.588     262.743    -794.464
  H     -283.757     263.113    -792.054
  H     -283.491     260.544    -792.529
  H     -284.979     261.104    -791.779
  P     -287.377     264.604    -793.407
  C     -288.715     263.005    -791.912
  O     -288.483     264.355    -792.270
  O     -287.770     264.197    -794.793
  O     -287.118     266.187    -793.303
  H     -286.804     266.550    -794.166
  H     -289.363     262.980    -791.027
  H     -287.771     262.495    -791.675
  H     -289.215     262.479    -792.729
  H     -282.364     257.299    -795.288
  H     -283.976     256.672    -795.041
  H     -283.054     257.271    -793.683

 3  4  5  6  7  8  9  10  11  12  13  23  28  29  30  31  32 0
 6-311+G(2d,p)
 ****
 33  34 0
 6-311+G(2d,p)
 ****
 1  2  14  15  16  17  18  19  20  21  22  24  25  26  27 0
 3-21G
 ****
 35  36  37  38  39  40  41  42  43  44  45 0
 3-21G
 ****


