%nproc=1
%NoSave
%Mem=1900MB
#P OB98/GEN NMR

erre ene a

0 1
  C     -235.854     224.190    -401.604
  O     -234.919     223.667    -400.680
  H     -235.307     224.699    -402.403
  H     -236.521     224.911    -401.120
  H     -236.441     223.380    -402.043
  P     -235.474     223.097    -399.283
  C     -234.446     220.728    -399.370
  O     -234.375     222.031    -398.790
  C     -233.046     220.107    -399.474
  O     -232.293     220.745    -400.528
  C     -232.202     220.276    -398.220
  O     -232.659     219.523    -397.110
  C     -230.791     220.064    -398.743
  O     -230.398     218.697    -398.784
  C     -230.899     220.628    -400.187
  N     -230.190     221.892    -400.337
  C     -228.889     221.805    -400.824
  O     -228.332     220.740    -401.102
  N     -228.218     222.990    -400.952
  C     -228.698     224.222    -400.597
  O     -228.029     225.250    -400.696
  C     -230.067     224.249    -400.067
  C     -230.744     223.098    -399.960
  O     -236.875     222.556    -399.312
  O     -235.280     224.320    -398.270
  H     -230.384     218.373    -397.862
  H     -235.818     224.193    -397.451
  H     -227.278     222.956    -401.314
  H     -230.481     225.204    -399.765
  H     -231.757     223.089    -399.568
  H     -230.459     219.914    -400.900
  H     -230.053     220.590    -398.129
  H     -232.267     221.330    -397.914
  H     -233.161     219.046    -399.734
  H     -234.863     220.835    -400.376
  H     -235.101     220.089    -398.773
  P     -232.619     220.063    -395.607
  C     -235.035     219.315    -395.024
  O     -233.650     219.195    -394.732
  O     -232.595     221.549    -395.427
  O     -231.189     219.501    -395.105
  H     -230.812     220.156    -394.486
  H     -235.594     218.683    -394.366
  H     -235.213     219.021    -396.037
  H     -235.341     220.331    -394.889

 6  7  8  9  10  11  12  13  14  15  16  26  31  32  33  34  35 0
 6-311+G(2d,p)
 ****
 36  37 0
 6-311+G(2d,p)
 ****
 1  2  3  4  5  17  18  19  20  21  22  23  24  25 0
 3-21G
 ****
 27  28  29  30  38  39  40  41  42  43  44  45 0
 3-21G
 ****


