%nproc=1
%NoSave
%Mem=1900MB
#P OB98/GEN NMR

erre ene a

0 1
  C     -116.341     -83.957     -83.573
  O     -117.656     -83.705     -83.123
  H     -116.154     -83.346     -84.461
  H     -116.228     -85.009     -83.845
  H     -115.610     -83.690     -82.805
  P     -118.145     -84.375     -81.752
  C     -118.642     -82.117     -80.614
  O     -119.177     -83.351     -81.076
  C     -119.745     -81.276     -79.978
  O     -120.706     -80.872     -80.978
  C     -120.545     -82.016     -78.910
  O     -119.807     -82.117     -77.708
  C     -121.785     -81.138     -78.837
  O     -121.540     -79.960     -78.054
  C     -121.992     -80.767     -80.325
  N     -122.990     -81.608     -80.987
  C     -124.302     -81.147     -80.949
  O     -124.634     -80.101     -80.395
  N     -125.236     -81.959     -81.535
  C     -125.000     -83.199     -82.058
  O     -125.892     -83.981     -82.371
  C     -123.587     -83.599     -82.139
  C     -122.663     -82.805     -81.594
  O     -117.065     -84.870     -80.850
  O     -119.096     -85.571     -82.237
  H     -118.607     -86.414     -82.184
  H     -122.365     -79.438     -78.072
  H     -126.198     -81.657     -81.471
  H     -123.352     -84.547     -82.606
  H     -121.617     -83.094     -81.615
  H     -122.312     -79.721     -80.418
  H     -122.633     -81.655     -78.381
  H     -120.834     -83.007     -79.275
  H     -119.287     -80.369     -79.563
  H     -118.221     -81.578     -81.470
  H     -117.843     -82.320     -79.894
  P     -119.429     -83.543     -77.088
  C     -116.933     -83.003     -76.878
  O     -118.119     -83.359     -76.182
  O     -119.348     -84.661     -78.073
  O     -120.578     -83.818     -76.005
  H     -120.979     -84.691     -76.180
  H     -116.126     -82.907     -76.182
  H     -117.082     -82.071     -77.383
  H     -116.698     -83.763     -77.594

 6  7  8  9  10  11  12  13  14  15  16  27  31  32  33  34  35 0
 6-311+G(2d,p)
 ****
 36  37 0
 6-311+G(2d,p)
 ****
 1  2  3  4  5  17  18  19  20  21  22  23  24  25 0
 3-21G
 ****
 26  28  29  30  38  39  40  41  42  43  44  45 0
 3-21G
 ****


