%nproc=1
%NoSave
%Mem=1900MB
#P OB98/GEN NMR

erre ene a

0 1
  C      270.128    -165.302    -270.904
  O      268.748    -165.215    -271.196
  H      270.322    -166.259    -270.414
  H      270.418    -164.493    -270.228
  H      270.719    -165.249    -271.824
  P      268.276    -163.959    -272.082
  C      267.299    -165.485    -273.983
  O      268.229    -164.490    -273.594
  C      267.283    -165.645    -275.503
  O      266.845    -164.396    -276.097
  C      268.648    -165.994    -276.101
  O      268.446    -166.869    -277.210
  C      269.161    -164.654    -276.604
  O      270.138    -164.804    -277.630
  C      267.852    -163.978    -277.041
  N      267.966    -162.523    -277.096
  C      268.469    -161.976    -278.282
  O      268.802    -162.713    -279.212
  N      268.622    -160.617    -278.374
  C      268.361    -159.870    -277.347
  N      268.558    -158.529    -277.493
  C      267.871    -160.405    -276.061
  C      267.689    -161.726    -276.010
  O      269.577    -163.028    -272.047
  O      267.030    -163.297    -271.599
  H      269.683    -165.075    -278.456
  H      270.406    -163.514    -272.190
  H      267.677    -159.742    -275.231
  H      267.327    -162.202    -275.110
  H      267.546    -164.335    -278.033
  H      269.621    -164.094    -275.781
  H      269.319    -166.459    -275.376
  H      266.533    -166.401    -275.768
  H      268.916    -158.207    -278.385
  H      266.294    -165.225    -273.635
  H      268.440    -157.861    -276.746
  H      267.589    -166.426    -273.505
  P      269.602    -167.895    -277.628
  C      268.236    -169.837    -276.607
  O      269.505    -169.205    -276.712
  O      270.969    -167.312    -277.763
  O      269.091    -168.439    -279.053
  H      269.869    -168.503    -279.642
  H      268.315    -170.693    -275.969
  H      267.910    -170.145    -277.578
  H      267.528    -169.149    -276.194

 6  7  8  9  10  11  12  13  14  15  16  26  30  31  32  33  35 0
 6-311+G(2d,p)
 ****
 37  38 0
 6-311+G(2d,p)
 ****
 1  2  3  4  5  17  18  19  20  21  22  23  24  25 0
 3-21G
 ****
 27  28  29  34  36  39  40  41  42  43  44  45  46 0
 3-21G
 ****


