%nproc=1
%NoSave
%Mem=1900MB
#P OB98/GEN NMR

erre ene a

0 1
  C      466.503      41.658    -162.449
  O      466.540      42.866    -163.182
  H      467.457      41.137    -162.579
  H      465.702      41.022    -162.836
  H      466.347      41.855    -161.382
  P      465.379      43.931    -162.897
  C      464.666      44.247    -165.364
  O      465.237      44.841    -164.215
  C      465.600      44.403    -166.569
  O      465.544      45.786    -167.022
  C      467.072      44.075    -166.267
  O      467.638      43.413    -167.391
  C      467.712      45.444    -166.093
  O      469.115      45.425    -166.369
  C      466.898      46.276    -167.069
  N      468.868      50.724    -168.401
  C      468.950      49.489    -169.017
  N      469.664      49.432    -170.165
  N      468.366      48.404    -168.560
  C      467.653      48.631    -167.427
  C      467.502      49.795    -166.716
  C      468.173      50.979    -167.225
  O      468.157      52.094    -166.702
  N      466.728      49.604    -165.604
  C      466.409      48.320    -165.640
  N      466.945      47.688    -166.736
  O      466.050      44.918    -161.831
  O      464.100      43.360    -162.382
  H      469.226      45.184    -167.317
  H      465.570      44.862    -160.982
  H      469.342      51.520    -168.790
  H      465.805      47.806    -164.903
  H      467.259      46.184    -168.109
  H      467.567      45.794    -165.066
  H      470.099      50.232    -170.600
  H      467.190      43.448    -165.375
  H      469.709      48.545    -170.653
  H      465.217      43.788    -167.389
  H      463.710      44.724    -165.581
  H      464.492      43.177    -165.173
  P      468.243      41.942    -167.145
  C      470.488      42.627    -168.239
  O      469.424      41.692    -168.218
  O      467.066      40.973    -167.643
  O      468.609      41.672    -165.723
  H      466.646      40.542    -166.879
  H      471.196      42.345    -168.990
  H      470.969      42.642    -167.283
  H      470.103      43.601    -168.460

 6  7  8  9  10  11  12  13  14  15  26  29  33  34 0
 6-311+G(2d,p)
 ****
 36  38  39  40  41 0
 6-311+G(2d,p)
 ****
 1  2  3  4  5  16  17  18  19  20  21  22  23  24  25 0
 3-21G
 ****
 27  28  30  31  32  35  37  42  43  44  45  46  47 0
 3-21G
 ****
 48  49 0
 3-21G
 ****


