%nproc=1
%NoSave
%Mem=1900MB
#P OB98/GEN NMR

erre ene a

0 1
  C     -518.002    -758.471    -488.634
  O     -518.654    -757.760    -487.603
  H     -518.743    -759.047    -489.185
  H     -517.273    -759.163    -488.209
  H     -517.507    -757.786    -489.323
  P     -517.773    -756.829    -486.636
  C     -518.550    -754.748    -487.969
  O     -517.454    -755.531    -487.523
  C     -518.179    -753.973    -489.222
  O     -517.968    -754.854    -490.345
  C     -519.230    -752.983    -489.714
  O     -519.336    -751.810    -488.910
  C     -518.702    -752.690    -491.097
  O     -517.570    -751.809    -491.007
  C     -518.270    -754.108    -491.557
  N     -519.312    -754.786    -492.330
  C     -519.458    -754.373    -493.668
  O     -518.761    -753.479    -494.123
  N     -520.437    -754.966    -494.435
  C     -521.222    -755.874    -493.908
  N     -522.164    -756.426    -494.710
  C     -521.096    -756.320    -492.500
  C     -520.139    -755.741    -491.785
  O     -516.585    -757.479    -486.001
  O     -518.825    -756.250    -485.575
  H     -517.111    -751.842    -491.865
  H     -518.327    -755.668    -484.940
  H     -521.787    -757.057    -492.109
  H     -519.993    -756.019    -490.746
  H     -517.351    -754.064    -492.149
  H     -519.435    -752.216    -491.751
  H     -520.211    -753.477    -489.805
  H     -517.220    -753.468    -489.019
  H     -522.223    -756.084    -495.671
  H     -518.836    -754.064    -487.154
  H     -522.866    -757.074    -494.369
  H     -519.405    -755.392    -488.196
  P     -520.339    -751.875    -487.648
  C     -518.760    -750.961    -485.783
  O     -519.414    -752.082    -486.356
  O     -521.066    -753.281    -487.825
  O     -521.292    -750.728    -487.543
  H     -521.949    -753.153    -488.255
  H     -518.189    -751.276    -484.935
  H     -519.490    -750.242    -485.474
  H     -518.108    -750.519    -486.508

 6  7  8  9  10  11  12  13  14  15  16  26  30  31  32  33  35 0
 6-311+G(2d,p)
 ****
 37  38 0
 6-311+G(2d,p)
 ****
 1  2  3  4  5  17  18  19  20  21  22  23  24  25 0
 3-21G
 ****
 27  28  29  34  36  39  40  41  42  43  44  45  46 0
 3-21G
 ****


