%nproc=1
%NoSave
%Mem=1900MB
#P OB98/GEN NMR

erre ene a

0 1
  C       -4.645      87.953    -151.455
  O       -5.733      87.203    -152.007
  P       -5.883      87.181    -153.604
  C       -7.329      85.066    -154.020
  O       -7.279      86.485    -153.980
  C       -7.694      84.480    -152.648
  O       -8.995      84.961    -152.210
  C       -7.763      82.950    -152.636
  O       -7.401      82.494    -151.328
  C       -9.240      82.684    -152.851
  O       -9.603      81.362    -152.453
  C       -9.846      83.812    -152.020
  N      -14.616      82.186    -151.829
  C      -13.457      81.603    -151.355
  N      -13.595      80.429    -150.704
  N      -12.268      82.127    -151.506
  C      -12.290      83.321    -152.146
  C      -13.369      83.996    -152.668
  C      -14.675      83.393    -152.516
  O      -15.734      83.858    -152.926
  N      -12.984      85.169    -153.268
  C      -11.673      85.196    -153.114
  N      -11.210      84.117    -152.410
  O       -4.794      86.095    -154.050
  O       -5.628      88.501    -154.253
  H      -10.582      81.303    -152.495
  H       -4.041      86.540    -154.480
  H      -15.506      81.735    -151.693
  H      -11.017      85.966    -153.491
  H       -9.867      83.575    -150.948
  H       -9.489      82.802    -153.914
  H      -14.487      79.999    -150.509
  H       -7.130      82.455    -153.379
  H      -12.766      80.002    -150.310
  H       -6.956      84.823    -151.914
  H       -6.363      84.665    -154.340
  H       -8.046      84.758    -154.788
  P       -5.845      82.238    -151.052
  C       -4.715      82.891    -148.808
  O       -5.688      82.101    -149.465
  O       -5.167      83.652    -151.375
  O       -5.242      81.131    -151.855
  H       -4.233      83.532    -151.624
  H       -5.214      83.721    -148.300
  H       -3.969      83.286    -149.503
  H       -4.207      82.273    -148.063
  H       -4.667      87.880    -150.388
  H       -4.736      88.979    -151.744
  H       -3.719      87.560    -151.820

 3  4  5  6  7  8  9  10  11  12  23  26  30  31 0
 6-311+G(2d,p)
 ****
 33  35  36  37  38 0
 6-311+G(2d,p)
 ****
 1  2  13  14  15  16  17  18  19  20  21  22  24  25 0
 3-21G
 ****
 27  28  29  32  34  39  40  41  42  43  44  45  46  47  48  49 0
 3-21G
 ****


