%nproc=1
%NoSave
%Mem=1900MB
#P OB98/GEN NMR

erre ene a

0 1
  C      100.795    -332.339    -194.363
  O      100.118    -333.401    -193.683
  P       98.609    -333.831    -193.966
  C       96.239    -333.016    -193.161
  O       97.646    -332.792    -193.214
  C       95.666    -332.949    -191.729
  O       96.124    -334.096    -190.969
  C       96.194    -331.713    -191.004
  O       95.573    -330.452    -191.188
  C       96.303    -332.143    -189.548
  O       95.138    -331.807    -188.784
  C       96.452    -333.666    -189.638
  N      100.445    -333.220    -186.464
  C       99.288    -332.472    -186.523
  N       99.192    -331.444    -185.646
  N       98.317    -332.708    -187.364
  C       98.575    -333.704    -188.232
  C       99.690    -334.515    -188.291
  C      100.739    -334.290    -187.317
  O      101.784    -334.930    -187.207
  N       99.612    -335.412    -189.317
  C       98.458    -335.144    -189.903
  N       97.782    -334.118    -189.268
  O       98.303    -335.282    -193.776
  O       98.398    -333.487    -195.527
  H       95.344    -331.939    -187.842
  H       97.772    -334.151    -195.880
  H      101.154    -333.015    -185.783
  H       98.061    -335.657    -190.772
  H       95.756    -334.172    -188.963
  H       97.150    -331.643    -189.052
  H       99.955    -331.136    -185.063
  H       97.231    -331.560    -191.339
  H       98.457    -330.763    -185.835
  H       94.578    -333.007    -191.749
  H       96.064    -334.007    -193.595
  H       95.720    -332.293    -193.797
  P       96.211    -329.178    -191.917
  C       98.408    -327.852    -191.807
  O       97.589    -328.834    -191.177
  O       95.264    -327.963    -191.468
  O       96.296    -329.263    -193.411
  H       95.407    -327.192    -192.047
  H       99.419    -327.934    -191.410
  H       98.009    -326.858    -191.589
  H       98.436    -328.009    -192.890
  H      101.794    -332.256    -193.989
  H      100.274    -331.419    -194.197
  H      100.823    -332.548    -195.412

 3  4  5  6  7  8  9  10  11  12  23  26  30  31 0
 6-311+G(2d,p)
 ****
 33  35  36  37  38 0
 6-311+G(2d,p)
 ****
 1  2  13  14  15  16  17  18  19  20  21  22  24  25 0
 3-21G
 ****
 27  28  29  32  34  39  40  41  42  43  44  45  46  47  48  49 0
 3-21G
 ****


