%nproc=1
%NoSave
%Mem=1900MB
#P OB98/GEN NMR

erre ene a

0 1
  C       23.071     765.637    -669.734
  O       23.907     764.497    -669.875
  P       23.266     763.035    -669.998
  C       24.484     761.618    -671.761
  O       24.462     762.025    -670.405
  C       25.574     760.582    -672.014
  O       26.881     761.199    -671.880
  C       25.558     759.372    -671.039
  O       25.976     758.226    -671.791
  C       26.604     759.743    -670.016
  O       27.103     758.618    -669.294
  C       27.639     760.419    -670.931
  N       32.122     760.639    -668.431
  C       31.463     759.613    -669.030
  N       30.255     759.636    -669.654
  C       29.722     760.872    -669.637
  C       30.265     762.004    -669.054
  C       31.525     761.881    -668.456
  N       32.230     762.922    -667.874
  N       29.390     763.084    -669.200
  C       28.356     762.581    -669.845
  N       28.538     761.280    -670.185
  O       22.059     762.934    -670.864
  O       22.942     762.625    -668.494
  H       26.403     758.300    -668.702
  H       21.967     762.674    -668.335
  H       31.969     758.660    -668.986
  H       27.448     763.133    -670.092
  H       28.247     759.687    -671.486
  H       26.191     760.439    -669.292
  H       24.565     759.190    -670.591
  H       25.493     760.226    -673.060
  H       24.696     762.502    -672.381
  H       33.181     762.747    -667.593
  H       31.937     763.877    -668.097
  H       23.503     761.228    -672.057
  P       25.241     756.812    -671.591
  C       25.595     756.347    -674.071
  O       25.774     755.855    -672.766
  O       23.760     756.875    -671.413
  O       25.977     756.212    -670.272
  H       25.424     755.489    -669.905
  H       24.559     756.174    -674.396
  H       26.283     755.806    -674.750
  H       25.804     757.406    -674.133
  H       23.676     766.517    -669.667
  H       22.483     765.540    -668.845
  H       22.424     765.712    -670.583

 3  4  5  6  7  8  9  10  11  12  22  25  29  30  31  32 0
 6-311+G(2d,p)
 ****
 33  36  37 0
 6-311+G(2d,p)
 ****
 1  2  13  14  15  16  17  18  19  20  21  23  24  26 0
 3-21G
 ****
 27  28  34  35  38  39  40  41  42  43  44  45  46  47  48 0
 3-21G
 ****


