%nproc=1
%NoSave
%Mem=1900MB
#P OB98/GEN NMR

erre ene a

0 1
  C       79.091     -13.893    -278.768
  O       79.285     -13.164    -277.548
  P       80.777     -13.093    -276.965
  C       80.382     -13.488    -274.415
  O       80.704     -12.564    -275.453
  C       79.235     -12.940    -273.562
  O       77.979     -13.035    -274.258
  C       79.035     -13.712    -272.263
  O       80.003     -13.340    -271.301
  C       77.610     -13.328    -271.885
  O       77.579     -12.152    -271.062
  C       76.940     -13.059    -273.255
  N       75.916     -14.036    -273.582
  C       74.615     -13.725    -273.159
  O       74.402     -12.686    -272.529
  N       73.604     -14.613    -273.435
  C       73.867     -15.717    -274.060
  N       72.822     -16.556    -274.303
  C       75.228     -16.098    -274.498
  C       76.195     -15.223    -274.228
  O       81.425     -11.861    -277.758
  O       81.564     -14.349    -277.158
  H       76.637     -12.011    -270.833
  H       82.375     -12.015    -277.897
  H       75.401     -17.038    -275.007
  H       77.227     -15.421    -274.510
  H       76.476     -12.065    -273.263
  H       77.117     -14.127    -271.313
  H       79.086     -14.793    -272.460
  H       79.436     -11.881    -273.341
  H       71.906     -16.265    -273.983
  H       81.257     -13.674    -273.790
  H       72.919     -17.450    -274.774
  H       80.111     -14.448    -274.872
  P       80.345     -14.378    -270.138
  C       79.301     -12.862    -268.342
  O       80.481     -13.491    -268.807
  O       81.882     -14.744    -270.454
  O       79.494     -15.603    -270.037
  H       82.182     -15.456    -269.860
  H       79.486     -12.470    -267.337
  H       78.481     -13.578    -268.297
  H       79.045     -12.026    -269.004
  H       78.057     -13.861    -279.042
  H       79.391     -14.910    -278.627
  H       79.680     -13.452    -279.545

 3  4  5  6  7  8  9  10  11  12  13  21  23  27  28  29  30  32 0
 6-311+G(2d,p)
 ****
 34  35 0
 6-311+G(2d,p)
 ****
 1  2  14  15  16  17  18  19  20  22  24  25  26 0
 3-21G
 ****
 31  33  36  37  38  39  40  41  42  43  44  45  46 0
 3-21G
 ****


