%nproc=1
%NoSave
%Mem=1900MB
#P OB98/GEN NMR

erre ene a

0 1
  C       -2.754     -39.155     216.315
  O       -2.686     -38.393     215.127
  H       -2.852     -40.211     216.047
  H       -3.628     -38.863     216.902
  H       -1.845     -39.029     216.909
  P       -2.405     -36.818     215.233
  C       -0.401     -35.372     215.966
  O       -1.033     -36.645     216.044
  C        0.155     -34.980     217.333
  O       -0.921     -34.817     218.284
  C        1.089     -36.023     217.939
  O        2.357     -35.987     217.312
  C        1.074     -35.593     219.398
  O        1.941     -34.469     219.616
  C       -0.405     -35.181     219.584
  N       -1.216     -36.235     220.196
  C       -0.850     -36.624     221.482
  O        0.097     -36.130     222.090
  N       -1.590     -37.640     222.030
  C       -2.573     -38.348     221.396
  O       -3.052     -39.383     221.843
  C       -2.966     -37.841     220.072
  C       -2.269     -36.837     219.535
  O       -3.544     -35.989     215.730
  O       -1.989     -36.409     213.740
  H       -2.753     -35.991     213.295
  H        2.824     -34.732     219.289
  H       -1.300     -37.962     222.945
  H       -3.786     -38.336     219.561
  H       -2.524     -36.469     218.545
  H       -0.476     -34.286     220.216
  H        1.407     -36.389     220.069
  H        0.643     -37.022     217.860
  H        0.667     -34.012     217.231
  H       -1.145     -34.631     215.650
  H        0.399     -35.413     215.218
  P        3.397     -37.194     217.479
  C        3.479     -39.626     216.682
  O        2.643     -38.556     217.096
  O        4.120     -37.231     218.786
  O        4.427     -36.998     216.263
  H        5.337     -36.982     216.619
  H        2.877     -40.480     216.452
  H        4.161     -39.871     217.470
  H        4.029     -39.333     215.812

 6  7  8  9  10  11  12  13  14  15  16  27  31  32  33  34  35 0
 6-311+G(2d,p)
 ****
 36  37 0
 6-311+G(2d,p)
 ****
 1  2  3  4  5  17  18  19  20  21  22  23  24  25 0
 3-21G
 ****
 26  28  29  30  38  39  40  41  42  43  44  45 0
 3-21G
 ****


