%nproc=1
%NoSave
%Mem=1900MB
#P OB98/GEN NMR

erre ene a

0 1
  C     -401.355      35.887    -141.189
  O     -401.806      34.550    -141.129
  H     -400.568      36.024    -140.439
  H     -402.174      36.574    -140.963
  H     -400.941      36.115    -142.174
  P     -402.869      34.042    -142.218
  C     -401.034      32.662    -143.391
  O     -402.037      33.658    -143.534
  C     -401.663      31.272    -143.499
  O     -402.267      31.097    -144.800
  C     -400.663      30.131    -143.347
  O     -400.296      29.961    -141.992
  C     -401.456      28.983    -143.957
  O     -402.417      28.468    -143.024
  C     -402.169      29.693    -145.135
  N     -401.481      29.501    -146.414
  C     -401.648      28.259    -147.019
  O     -402.325      27.352    -146.529
  N     -400.969      28.073    -148.195
  C     -400.090      28.956    -148.756
  O     -399.339      28.666    -149.682
  C     -400.013      30.276    -148.114
  C     -400.689      30.480    -146.977
  O     -404.040      34.938    -142.447
  O     -403.326      32.611    -141.658
  H     -404.194      32.699    -141.217
  H     -402.995      29.218    -142.776
  H     -401.047      27.160    -148.618
  H     -399.374      31.028    -148.564
  H     -400.623      31.436    -146.469
  H     -403.198      29.318    -145.240
  H     -400.818      28.151    -144.255
  H     -399.778      30.321    -143.971
  H     -402.456      31.196    -142.744
  H     -400.572      32.777    -142.403
  H     -400.272      32.807    -144.162
  P     -399.044      29.050    -141.581
  C     -397.600      31.155    -141.332
  O     -397.708      29.868    -141.923
  O     -399.074      27.657    -142.112
  O     -399.068      29.055    -139.977
  H     -399.052      28.129    -139.656
  H     -396.676      31.606    -141.627
  H     -397.628      31.062    -140.266
  H     -398.415      31.767    -141.658

 6  7  8  9  10  11  12  13  14  15  16  27  31  32  33  34  35 0
 6-311+G(2d,p)
 ****
 36  37 0
 6-311+G(2d,p)
 ****
 1  2  3  4  5  17  18  19  20  21  22  23  24  25 0
 3-21G
 ****
 26  28  29  30  38  39  40  41  42  43  44  45 0
 3-21G
 ****


