%nproc=1
%NoSave
%Mem=1900MB
#P OB98/GEN NMR

erre ene a

0 1
  C      288.812    -646.345    1030.453
  O      287.671    -645.742    1031.011
  H      288.677    -647.430    1030.463
  H      289.699    -646.096    1031.050
  H      288.951    -646.016    1029.430
  P      287.619    -644.131    1031.016
  C      287.788    -644.048    1033.612
  O      288.370    -643.665    1032.359
  C      288.212    -643.066    1034.712
  O      289.648    -643.189    1034.927
  C      287.911    -641.577    1034.391
  O      287.549    -640.936    1035.609
  C      289.267    -641.055    1033.942
  O      289.376    -639.634    1034.068
  C      290.174    -641.842    1034.885
  N      294.397    -639.095    1034.836
  C      293.170    -638.847    1035.432
  N      293.067    -637.683    1036.104
  N      292.165    -639.661    1035.344
  C      292.440    -640.804    1034.663
  C      293.606    -641.174    1034.031
  C      294.713    -640.242    1034.098
  O      295.825    -640.390    1033.583
  N      293.479    -642.388    1033.428
  C      292.229    -642.753    1033.689
  N      291.556    -641.841    1034.423
  O      286.069    -643.835    1031.322
  O      288.073    -643.470    1029.765
  H      288.596    -639.231    1033.646
  H      285.571    -643.715    1030.493
  H      295.149    -638.422    1034.913
  H      291.778    -643.687    1033.346
  H      290.180    -641.440    1035.905
  H      289.446    -641.336    1032.897
  H      293.818    -637.026    1036.236
  H      287.128    -641.431    1033.649
  H      292.180    -637.504    1036.578
  H      287.722    -643.369    1035.641
  H      288.148    -645.055    1033.872
  H      286.696    -644.051    1033.516
  P      286.033    -641.088    1036.140
  C      285.001    -638.738    1035.661
  O      285.116    -640.105    1035.276
  O      286.097    -640.375    1037.564
  O      285.587    -642.502    1036.257
  H      285.417    -640.738    1038.158
  H      284.354    -638.228    1034.978
  H      285.968    -638.280    1035.645
  H      284.595    -638.679    1036.649

 6  7  8  9  10  11  12  13  14  15  26  29  33  34 0
 6-311+G(2d,p)
 ****
 36  38  39  40  41 0
 6-311+G(2d,p)
 ****
 1  2  3  4  5  16  17  18  19  20  21  22  23  24  25 0
 3-21G
 ****
 27  28  30  31  32  35  37  42  43  44  45  46  47 0
 3-21G
 ****
 48  49 0
 3-21G
 ****


