%nproc=1
%NoSave
%Mem=1900MB
#P OB98/GEN NMR

erre ene a

0 1
  C      -49.741      99.753     -54.135
  O      -48.516     100.452     -54.114
  P      -48.048     101.364     -52.889
  C      -48.750     103.585     -54.040
  O      -48.906     102.723     -52.918
  C      -49.706     104.786     -54.010
  O      -51.059     104.319     -53.836
  C      -49.397     105.676     -52.802
  O      -48.367     106.641     -52.873
  C      -50.750     106.212     -52.350
  O      -51.007     107.530     -52.836
  C      -51.744     105.215     -52.948
  N      -56.009     104.739     -50.249
  C      -55.773     105.506     -51.373
  N      -56.738     106.395     -51.696
  N      -54.682     105.422     -52.091
  C      -53.770     104.558     -51.586
  C      -53.896     103.735     -50.492
  C      -55.122     103.808     -49.732
  O      -55.336     103.207     -48.682
  N      -52.740     103.047     -50.234
  C      -51.897     103.481     -51.149
  N      -52.465     104.429     -51.966
  O      -46.577     101.451     -52.639
  O      -48.702     100.577     -51.641
  H      -50.268     108.101     -52.558
  H      -48.095     100.674     -50.882
  H      -56.836     104.905     -49.690
  H      -50.862     103.170     -51.240
  H      -52.498     105.737     -53.552
  H      -50.796     106.273     -51.256
  H      -57.519     106.588     -51.087
  H      -49.076     105.007     -51.992
  H      -56.526     107.086     -52.407
  H      -49.696     105.320     -54.963
  H      -48.912     102.984     -54.940
  H      -47.720     103.948     -54.079
  P      -47.311     106.989     -51.724
  C      -48.609     109.004     -50.832
  O      -48.085     107.724     -50.531
  O      -46.421     108.165     -52.348
  O      -46.442     105.849     -51.301
  H      -45.560     108.203     -51.892
  H      -48.835     109.526     -49.900
  H      -49.533     108.895     -51.410
  H      -47.891     109.597     -51.407
  H      -49.829      99.215     -55.056
  H      -50.550     100.448     -54.049
  H      -49.773      99.065     -53.316

 3  4  5  6  7  8  9  10  11  12  23  26  30  31 0
 6-311+G(2d,p)
 ****
 33  35  36  37  38 0
 6-311+G(2d,p)
 ****
 1  2  13  14  15  16  17  18  19  20  21  22  24  25 0
 3-21G
 ****
 27  28  29  32  34  39  40  41  42  43  44  45  46  47  48  49 0
 3-21G
 ****


