%nproc=1
%NoSave
%Mem=1900MB
#P OB98/GEN NMR

erre ene a

0 1
  C     -179.382     247.500     499.137
  O     -178.007     247.311     498.870
  H     -179.634     246.986     500.066
  H     -179.989     247.082     498.326
  H     -179.597     248.566     499.253
  P     -177.443     247.946     497.508
  C     -176.084     246.978     495.542
  O     -176.885     246.687     496.680
  C     -176.164     245.835     494.529
  O     -175.811     244.600     495.199
  C     -177.559     245.652     493.918
  O     -177.418     245.254     492.551
  C     -178.136     244.499     494.723
  O     -179.175     243.820     494.023
  C     -176.883     243.661     494.978
  N     -179.522     239.684     496.766
  C     -179.432     240.236     495.532
  N     -178.677     241.281     495.138
  C     -177.926     241.737     496.160
  C     -177.912     241.284     497.467
  C     -178.766     240.210     497.764
  N     -178.894     239.669     499.020
  N     -177.037     242.042     498.227
  C     -176.534     242.931     497.392
  N     -177.055     242.798     496.133
  O     -176.484     249.074     497.670
  O     -178.793     248.302     496.725
  H     -179.406     243.008     494.523
  H     -179.430     247.563     496.757
  H     -180.049     239.774     494.765
  H     -175.803     243.695     497.649
  H     -176.617     243.025     494.129
  H     -178.553     244.873     495.661
  H     -178.176     246.549     493.985
  H     -175.407     246.003     493.750
  H     -175.040     247.127     495.845
  H     -179.530     238.898     499.145
  H     -178.337     240.039     499.778
  H     -176.454     247.911     495.097
  P     -177.932     246.242     491.400
  C     -180.196     247.139     490.543
  O     -179.499     246.533     491.623
  O     -177.558     245.859     490.005
  O     -177.263     247.642     491.808
  H     -176.930     248.084     491.003
  H     -181.222     247.279     490.814
  H     -180.138     246.507     489.682
  H     -179.753     248.087     490.320

 6  7  8  9  10  11  12  13  14  15  25  28  32  33  34  35 0
 6-311+G(2d,p)
 ****
 36  39  40 0
 6-311+G(2d,p)
 ****
 1  2  3  4  5  16  17  18  19  20  21  22  23  24 0
 3-21G
 ****
 26  27  29  30  31  37  38  41  42  43  44  45  46  47 0
 3-21G
 ****
 48 0
 3-21G
 ****


