%nproc=1
%NoSave
%Mem=1900MB
#P OB98/GEN NMR

erre ene a

0 1
  C      150.236      72.388    -133.949
  O      148.906      72.336    -133.428
  P      147.731      72.826    -134.403
  C      146.912      71.688    -136.590
  O      147.177      71.551    -135.200
  C      146.442      70.355    -137.171
  O      147.439      69.321    -137.014
  C      145.189      69.806    -136.497
  O      144.036      70.516    -136.915
  C      145.236      68.351    -136.941
  O      144.747      68.221    -138.288
  C      146.745      68.053    -136.909
  N      149.232      63.978    -135.071
  C      148.975      64.385    -136.333
  N      148.301      65.482    -136.741
  C      147.888      66.203    -135.686
  C      148.076      65.916    -134.343
  C      148.783      64.741    -134.044
  N      149.030      64.318    -132.759
  N      147.501      66.891    -133.550
  C      146.953      67.736    -134.401
  N      147.169      67.368    -135.702
  O      148.506      73.670    -135.521
  O      146.686      73.646    -133.717
  H      144.913      67.299    -138.570
  H      148.320      74.621    -135.409
  H      149.356      63.742    -137.122
  H      146.391      68.620    -134.121
  H      147.066      67.437    -137.759
  H      144.635      67.689    -136.312
  H      145.290      69.870    -135.405
  H      146.255      70.497    -138.243
  H      147.809      72.025    -137.117
  H      149.476      63.422    -132.631
  H      148.627      64.830    -131.987
  H      146.154      72.468    -136.730
  P      143.165      71.261    -135.790
  C      143.299      73.677    -134.920
  O      143.487      72.819    -136.034
  O      144.001      70.933    -134.469
  O      141.723      70.893    -135.762
  H      144.957      71.066    -134.601
  H      143.586      74.690    -135.211
  H      143.927      73.354    -134.084
  H      142.250      73.674    -134.622
  H      150.923      72.038    -133.208
  H      150.477      73.397    -134.211
  H      150.303      71.768    -134.819

 3  4  5  6  7  8  9  10  11  12  22  25  29  30  31  32 0
 6-311+G(2d,p)
 ****
 33  36  37 0
 6-311+G(2d,p)
 ****
 1  2  13  14  15  16  17  18  19  20  21  23  24  26 0
 3-21G
 ****
 27  28  34  35  38  39  40  41  42  43  44  45  46  47  48 0
 3-21G
 ****


