%nproc=1
%NoSave
%Mem=1900MB
#P OB98/GEN NMR

erre ene a

0 1
  C       29.023     -55.462      82.141
  O       28.278     -56.055      83.181
  H       28.513     -55.652      81.193
  H       30.018     -55.913      82.101
  H       29.115     -54.382      82.279
  P       28.525     -55.563      84.682
  C       29.397     -57.453      86.207
  O       29.739     -56.417      85.296
  C       28.775     -58.653      85.492
  O       29.672     -59.123      84.463
  C       28.527     -59.834      86.434
  O       27.281     -59.796      87.109
  C       28.595     -61.021      85.476
  O       27.310     -61.296      84.893
  C       29.583     -60.554      84.402
  N       32.378     -64.826      84.674
  C       31.003     -64.687      84.707
  N       30.297     -65.826      84.870
  N       30.394     -63.534      84.607
  C       31.236     -62.477      84.550
  C       32.613     -62.490      84.529
  C       33.277     -63.776      84.566
  O       34.490     -63.954      84.523
  N       33.130     -61.217      84.507
  C       32.068     -60.441      84.601
  N       30.895     -61.156      84.549
  O       27.258     -56.143      85.477
  O       28.628     -54.079      84.866
  H       27.364     -62.159      84.438
  H       27.033     -55.545      86.212
  H       32.788     -65.741      84.726
  H       32.090     -59.359      84.664
  H       29.228     -60.807      83.395
  H       28.902     -61.929      86.002
  H       30.714     -66.726      85.039
  H       29.343     -59.933      87.156
  H       29.301     -65.748      85.090
  H       27.851     -58.338      84.992
  H       28.680     -57.025      86.910
  H       30.275     -57.762      86.781
  P       27.133     -60.370      88.593
  C       25.655     -62.525      88.842
  O       26.896     -61.944      88.504
  O       25.709     -59.807      89.057
  O       28.223     -59.988      89.540
  H       25.818     -59.010      89.608
  H       25.711     -63.586      88.713
  H       24.891     -62.128      88.207
  H       25.423     -62.302      89.862

 6  7  8  9  10  11  12  13  14  15  26  29  33  34 0
 6-311+G(2d,p)
 ****
 36  38  39  40  41 0
 6-311+G(2d,p)
 ****
 1  2  3  4  5  16  17  18  19  20  21  22  23  24  25 0
 3-21G
 ****
 27  28  30  31  32  35  37  42  43  44  45  46  47 0
 3-21G
 ****
 48  49 0
 3-21G
 ****


