%nproc=1
%NoSave
%Mem=1900MB
#P OB98/GEN NMR

erre ene a

0 1
  C       64.213    -136.296    -258.504
  O       65.500    -135.956    -257.994
  P       66.682    -135.680    -259.056
  C       67.211    -138.211    -258.894
  O       67.727    -136.896    -258.919
  C       68.289    -139.239    -259.268
  O       67.699    -140.571    -259.222
  C       68.888    -139.056    -260.672
  O       70.260    -139.469    -260.601
  C       68.110    -140.047    -261.517
  O       68.802    -140.391    -262.716
  C       67.947    -141.191    -260.515
  N       66.419    -144.950    -263.641
  C       67.596    -144.297    -263.528
  N       67.930    -143.298    -262.670
  C       66.890    -143.001    -261.869
  C       65.626    -143.561    -261.886
  C       65.394    -144.584    -262.827
  N       64.202    -145.263    -262.933
  N       64.817    -142.972    -260.923
  C       65.585    -142.073    -260.335
  N       66.855    -142.080    -260.866
  O       67.459    -134.442    -258.403
  O       66.233    -135.372    -260.445
  H       68.224    -140.986    -263.236
  H       67.327    -133.644    -258.950
  H       68.386    -144.609    -264.222
  H       65.275    -141.406    -259.554
  H       68.861    -141.799    -260.426
  H       67.139    -139.619    -261.787
  H       68.818    -138.029    -261.051
  H       69.069    -139.209    -258.503
  H       66.393    -138.283    -259.627
  H       64.161    -146.066    -263.533
  H       63.495    -145.128    -262.205
  H       66.797    -138.436    -257.903
  P       71.276    -138.803    -261.645
  C       72.111    -140.913    -262.909
  O       72.404    -139.894    -261.969
  O       72.043    -137.704    -260.766
  O       70.605    -138.184    -262.841
  H       72.341    -136.971    -261.342
  H       73.021    -141.186    -263.448
  H       71.355    -140.598    -263.639
  H       71.729    -141.792    -262.378
  H       63.536    -136.449    -257.690
  H       64.284    -137.193    -259.082
  H       63.853    -135.501    -259.123

 3  4  5  6  7  8  9  10  11  12  22  25  29  30  31  32 0
 6-311+G(2d,p)
 ****
 33  36  37 0
 6-311+G(2d,p)
 ****
 1  2  13  14  15  16  17  18  19  20  21  23  24  26 0
 3-21G
 ****
 27  28  34  35  38  39  40  41  42  43  44  45  46  47  48 0
 3-21G
 ****


