%nproc=1
%NoSave
%Mem=1900MB
#P OB98/GEN NMR

erre ene a

0 1
  C      129.732    -123.824    -277.563
  O      129.425    -123.406    -276.228
  P      128.901    -121.905    -276.018
  C      126.344    -122.216    -275.635
  O      127.619    -121.937    -275.061
  C      125.570    -123.191    -274.749
  O      126.045    -124.540    -274.916
  C      125.715    -122.896    -273.265
  O      124.889    -121.809    -272.891
  C      125.309    -124.223    -272.635
  O      123.894    -124.277    -272.373
  C      125.711    -125.255    -273.711
  N      126.804    -126.116    -273.289
  C      126.491    -127.064    -272.306
  O      125.354    -127.118    -271.838
  N      127.487    -127.902    -271.868
  C      128.687    -127.786    -272.343
  N      129.627    -128.641    -271.863
  C      129.063    -126.777    -273.359
  C      128.079    -125.986    -273.785
  O      128.287    -121.532    -277.451
  O      129.974    -120.942    -275.615
  H      123.753    -125.113    -271.875
  H      128.409    -120.581    -277.633
  H      130.079    -126.715    -273.722
  H      128.263    -125.217    -274.527
  H      124.854    -125.900    -273.962
  H      125.813    -124.381    -271.676
  H      126.764    -122.675    -273.028
  H      124.505    -123.152    -275.035
  H      129.339    -129.313    -271.167
  H      126.465    -122.635    -276.637
  H      130.596    -128.634    -272.160
  H      125.797    -121.273    -275.756
  P      125.034    -121.243    -271.398
  C      125.752    -118.913    -272.211
  O      124.769    -119.662    -271.528
  O      126.624    -121.292    -271.180
  O      124.297    -121.957    -270.318
  H      126.839    -121.053    -270.256
  H      125.356    -117.914    -272.409
  H      126.001    -119.386    -273.164
  H      126.647    -118.823    -271.592
  H      130.067    -124.840    -277.550
  H      130.502    -123.199    -277.964
  H      128.856    -123.745    -278.172

 3  4  5  6  7  8  9  10  11  12  13  21  23  27  28  29  30  32 0
 6-311+G(2d,p)
 ****
 34  35 0
 6-311+G(2d,p)
 ****
 1  2  14  15  16  17  18  19  20  22  24  25  26 0
 3-21G
 ****
 31  33  36  37  38  39  40  41  42  43  44  45  46 0
 3-21G
 ****


