%nproc=1
%NoSave
%Mem=1900MB
#P OB98/GEN NMR

erre ene a

0 1
  C      574.579     -98.248      82.829
  O      574.983     -99.529      82.387
  H      573.724     -97.923      82.230
  H      575.393     -97.532      82.695
  H      574.284     -98.284      83.881
  P      576.115    -100.267      83.245
  C      578.636     -99.772      83.782
  O      577.491     -99.480      82.986
  C      579.821    -100.134      82.882
  O      579.937     -99.210      81.778
  C      581.173    -100.043      83.575
  O      581.372    -101.078      84.513
  C      582.097    -100.108      82.370
  O      582.249    -101.456      81.905
  C      581.317     -99.259      81.337
  N      581.877     -97.925      81.173
  C      582.242     -97.574      79.862
  O      582.069     -98.364      78.937
  N      582.817     -96.340      79.650
  C      582.990     -95.527      80.640
  N      583.570     -94.330      80.364
  C      582.597     -95.848      82.029
  C      582.063     -97.050      82.222
  O      576.331    -101.635      82.440
  O      575.804    -100.450      84.694
  H      581.394    -101.711      81.502
  H      576.516    -101.501      81.490
  H      582.754     -95.129      82.827
  H      581.746     -97.370      83.210
  H      581.318     -99.751      80.351
  H      583.096     -99.741      82.604
  H      581.291     -99.056      84.037
  H      579.639    -101.138      82.473
  H      583.845     -94.151      79.403
  H      578.427    -100.583      84.490
  H      583.786     -93.631      81.063
  H      578.867     -98.877      84.369
  P      582.519    -100.946      85.627
  C      585.054    -100.559      85.393
  O      583.906    -101.238      84.879
  O      582.303    -101.766      86.856
  O      582.597     -99.372      85.899
  H      582.824     -98.834      85.119
  H      585.915    -100.830      84.819
  H      585.205    -100.837      86.415
  H      584.901     -99.502      85.330

 6  7  8  9  10  11  12  13  14  15  16  26  30  31  32  33  35 0
 6-311+G(2d,p)
 ****
 37  38 0
 6-311+G(2d,p)
 ****
 1  2  3  4  5  17  18  19  20  21  22  23  24  25 0
 3-21G
 ****
 27  28  29  34  36  39  40  41  42  43  44  45  46 0
 3-21G
 ****


