%nproc=1
%NoSave
%Mem=1900MB
#P OB98/GEN NMR

erre ene a

0 1
  C      555.825     565.571     877.373
  O      557.049     565.229     876.708
  P      557.462     565.836     875.286
  C      557.388     563.694     873.841
  O      556.768     564.942     874.129
  C      556.750     562.993     872.653
  O      555.404     562.530     872.972
  C      556.588     563.884     871.408
  O      557.801     564.003     870.719
  C      555.485     563.145     870.645
  O      556.023     562.033     869.912
  C      554.577     562.635     871.810
  N      549.946     564.023     870.143
  C      550.831     563.081     869.693
  N      552.055     562.797     870.189
  C      552.317     563.536     871.274
  C      551.517     564.499     871.862
  C      550.264     564.732     871.238
  N      549.367     565.677     871.686
  N      552.120     565.073     872.953
  C      553.284     564.430     873.043
  N      553.442     563.494     872.053
  O      558.919     566.031     875.093
  O      556.675     567.226     875.187
  H      556.512     561.480     870.544
  H      557.164     567.838     874.621
  H      550.525     562.532     868.816
  H      554.032     564.621     873.806
  H      554.192     561.630     871.599
  H      554.959     563.790     869.936
  H      556.213     564.872     871.703
  H      557.345     562.114     872.387
  H      557.304     563.038     874.723
  H      548.511     565.806     871.184
  H      549.627     566.267     872.477
  H      558.453     563.861     873.640
  P      558.618     565.377     870.735
  C      557.995     566.049     868.331
  O      557.877     566.370     869.713
  O      560.093     565.267     870.559
  O      558.240     566.015     872.158
  H      558.987     566.572     872.476
  H      558.967     566.376     867.952
  H      557.205     566.568     867.800
  H      557.870     564.973     868.168
  H      555.766     565.046     878.303
  H      554.995     565.297     876.755
  H      555.801     566.625     877.556

 3  4  5  6  7  8  9  10  11  12  22  25  29  30  31  32 0
 6-311+G(2d,p)
 ****
 33  36  37 0
 6-311+G(2d,p)
 ****
 1  2  13  14  15  16  17  18  19  20  21  23  24  26 0
 3-21G
 ****
 27  28  34  35  38  39  40  41  42  43  44  45  46  47  48 0
 3-21G
 ****


