%nproc=1
%NoSave
%Mem=1900MB
#P OB98/GEN NMR

erre ene a

0 1
  C     -155.953     185.334    -100.389
  O     -156.939     186.104    -101.046
  P     -158.477     185.649    -101.025
  C     -159.069     187.266     -99.105
  O     -158.976     185.906     -99.520
  C     -160.521     187.746     -99.140
  O     -161.008     187.787    -100.495
  C     -161.489     186.853     -98.377
  O     -161.381     187.077     -96.983
  C     -162.819     187.276     -98.986
  O     -163.318     188.472     -98.368
  C     -162.431     187.542    -100.456
  N     -162.815     186.449    -101.340
  C     -163.705     186.779    -102.369
  O     -164.142     187.926    -102.471
  N     -164.116     185.788    -103.228
  C     -163.693     184.574    -103.056
  N     -164.145     183.636    -103.933
  C     -162.781     184.179    -101.966
  C     -162.388     185.157    -101.152
  O     -158.746     184.286    -101.566
  O     -159.209     186.814    -101.845
  H     -162.645     189.163     -98.529
  H     -159.034     186.738    -102.815
  H     -162.466     183.152    -101.856
  H     -161.721     184.955    -100.323
  H     -162.911     188.459    -100.820
  H     -163.589     186.507     -98.865
  H     -161.293     185.802     -98.617
  H     -160.550     188.767     -98.737
  H     -164.793     183.942    -104.648
  H     -158.472     187.875     -99.788
  H     -163.909     182.658    -103.869
  H     -158.652     187.367     -98.098
  P     -161.955     185.992     -95.955
  C     -159.756     185.207     -94.892
  O     -160.830     184.871     -95.747
  O     -163.321     185.475     -96.265
  O     -161.951     186.770     -94.554
  H     -162.790     186.592     -94.090
  H     -159.259     184.288     -94.572
  H     -160.111     185.745     -94.008
  H     -159.039     185.828     -95.434
  H     -154.996     185.796    -100.515
  H     -155.931     184.350    -100.808
  H     -156.185     185.273     -99.346

 3  4  5  6  7  8  9  10  11  12  13  23  27  28  29  30  32 0
 6-311+G(2d,p)
 ****
 34  35 0
 6-311+G(2d,p)
 ****
 1  2  14  15  16  17  18  19  20  21  22  24  25  26 0
 3-21G
 ****
 31  33  36  37  38  39  40  41  42  43  44  45  46 0
 3-21G
 ****


