%nproc=1
%NoSave
%Mem=1900MB
#P OB98/GEN NMR

erre ene a

0 1
  C      346.963     139.970     319.682
  O      346.991     138.617     319.273
  H      346.537     140.571     318.873
  H      347.977     140.325     319.891
  H      346.337     140.079     320.572
  P      347.618     137.567     320.310
  C      345.319     136.683     321.074
  O      346.529     136.386     320.387
  C      344.267     135.612     320.788
  O      343.086     135.903     321.579
  C      343.837     135.557     319.320
  O      343.626     134.196     318.943
  C      342.511     136.297     319.305
  O      341.675     135.898     318.226
  C      341.959     135.969     320.692
  N      337.027     137.278     320.793
  C      337.656     136.152     320.391
  N      338.979     135.879     320.414
  C      339.664     136.902     320.960
  C      339.163     138.108     321.410
  C      337.773     138.287     321.304
  N      337.128     139.437     321.686
  N      340.188     138.918     321.861
  C      341.286     138.207     321.699
  N      341.018     136.982     321.141
  O      348.042     138.131     321.625
  O      348.783     136.905     319.438
  H      341.607     134.918     318.237
  H      348.482     136.701     318.533
  H      337.016     135.369     319.993
  H      342.288     138.530     321.953
  H      341.435     135.006     320.717
  H      342.696     137.376     319.209
  H      344.568     136.016     318.652
  H      344.646     134.643     321.130
  H      344.941     137.661     320.762
  H      336.123     139.479     321.589
  H      337.659     140.198     322.088
  H      345.542     136.722     322.145
  P      344.617     133.541     317.865
  C      346.715     132.863     319.210
  O      345.506     132.422     318.599
  O      345.374     134.498     317.005
  O      343.620     132.649     316.978
  H      343.908     132.690     316.044
  H      347.211     132.029     319.661
  H      346.490     133.593     319.960
  H      347.351     133.298     318.468

 6  7  8  9  10  11  12  13  14  15  25  28  32  33  34  35 0
 6-311+G(2d,p)
 ****
 36  39  40 0
 6-311+G(2d,p)
 ****
 1  2  3  4  5  16  17  18  19  20  21  22  23  24 0
 3-21G
 ****
 26  27  29  30  31  37  38  41  42  43  44  45  46  47 0
 3-21G
 ****
 48 0
 3-21G
 ****


