%nproc=1
%NoSave
%Mem=1900MB
#P OB98/GEN NMR

erre ene a

0 1
  C      218.880    -896.380    -274.033
  O      219.800    -896.495    -272.965
  H      217.983    -896.962    -273.792
  H      219.304    -896.780    -274.958
  H      218.594    -895.337    -274.175
  P      221.258    -895.867    -273.144
  C      220.869    -893.875    -271.538
  O      221.565    -895.094    -271.774
  C      221.350    -893.237    -270.246
  O      221.146    -894.133    -269.129
  C      222.841    -892.909    -270.246
  O      223.098    -891.761    -271.022
  C      223.117    -892.774    -268.762
  O      222.701    -891.502    -268.270
  C      222.218    -893.909    -268.186
  N      222.973    -895.139    -267.921
  C      223.522    -895.258    -266.656
  O      223.365    -894.372    -265.808
  N      224.257    -896.386    -266.366
  C      224.409    -897.311    -267.255
  N      225.157    -898.398    -266.916
  C      223.833    -897.228    -268.618
  C      223.131    -896.118    -268.880
  O      221.492    -895.057    -274.385
  O      222.233    -897.142    -273.067
  H      222.876    -891.521    -267.311
  H      222.364    -897.518    -273.958
  H      223.982    -898.019    -269.330
  H      222.667    -895.970    -269.855
  H      221.751    -893.581    -267.246
  H      224.173    -892.900    -268.546
  H      223.410    -893.767    -270.632
  H      220.755    -892.327    -270.057
  H      225.537    -898.410    -265.982
  H      219.803    -894.124    -271.464
  H      225.256    -899.208    -267.503
  H      221.001    -893.179    -272.375
  P      224.575    -891.473    -271.598
  C      223.901    -892.251    -273.971
  O      224.372    -891.164    -273.158
  O      225.587    -892.503    -271.260
  O      224.916    -890.009    -270.996
  H      225.129    -890.074    -270.015
  H      223.806    -891.923    -274.985
  H      222.948    -892.578    -273.611
  H      224.598    -893.061    -273.922

 6  7  8  9  10  11  12  13  14  15  16  26  30  31  32  33  35 0
 6-311+G(2d,p)
 ****
 37  38 0
 6-311+G(2d,p)
 ****
 1  2  3  4  5  17  18  19  20  21  22  23  24  25 0
 3-21G
 ****
 27  28  29  34  36  39  40  41  42  43  44  45  46 0
 3-21G
 ****


