%nproc=1
%NoSave
%Mem=1900MB
#P OB98/GEN NMR

erre ene a

0 1
  C      -92.454      42.875      30.074
  O      -93.318      41.767      30.229
  H      -92.800      43.682      30.725
  H      -92.467      43.227      29.038
  H      -91.437      42.599      30.362
  P      -93.015      40.487      29.312
  C      -94.430      39.270      27.535
  O      -94.187      40.496      28.213
  C      -95.629      39.408      26.597
  O      -96.811      39.681      27.396
  C      -95.486      40.547      25.582
  O      -96.092      40.155      24.350
  C      -96.300      41.668      26.205
  O      -96.738      42.620      25.240
  C      -97.416      40.880      26.886
  N     -101.646      43.354      28.263
  C     -101.371      42.546      27.218
  N     -100.217      41.905      26.940
  C      -99.308      42.123      27.908
  C      -99.443      42.920      29.030
  C     -100.681      43.567      29.189
  N     -100.960      44.420      30.230
  N      -98.271      42.927      29.759
  C      -97.446      42.138      29.094
  N      -98.025      41.646      27.958
  O      -92.838      39.198      30.041
  O      -91.748      40.977      28.467
  H      -97.241      43.322      25.704
  H      -91.880      41.877      28.113
  H     -102.181      42.400      26.507
  H      -96.426      41.906      29.383
  H      -98.218      40.598      26.190
  H      -95.693      42.200      26.947
  H      -94.450      40.840      25.409
  H      -95.798      38.448      26.096
  H      -94.622      38.470      28.258
  H     -101.876      44.840      30.268
  H     -100.258      44.589      30.935
  H      -93.529      39.015      26.967
  P      -95.190      40.076      23.028
  C      -94.401      41.653      21.150
  O      -95.065      41.550      22.401
  O      -95.559      39.008      22.056
  O      -93.719      39.830      23.618
  H      -93.261      39.166      23.067
  H      -94.382      42.677      20.840
  H      -94.922      41.069      20.421
  H      -93.399      41.291      21.247

 6  7  8  9  10  11  12  13  14  15  25  28  32  33  34  35 0
 6-311+G(2d,p)
 ****
 36  39  40 0
 6-311+G(2d,p)
 ****
 1  2  3  4  5  16  17  18  19  20  21  22  23  24 0
 3-21G
 ****
 26  27  29  30  31  37  38  41  42  43  44  45  46  47 0
 3-21G
 ****
 48 0
 3-21G
 ****


