%nproc=1
%NoSave
%Mem=1900MB
#P OB98/GEN NMR

erre ene a

0 1
  C     -365.127    -304.037      46.595
  O     -364.336    -304.834      47.497
  P     -364.948    -306.206      48.065
  C     -364.336    -305.749      50.563
  O     -364.228    -306.614      49.443
  C     -363.105    -305.858      51.473
  O     -362.726    -307.255      51.641
  C     -361.862    -305.116      50.951
  O     -361.138    -304.647      52.098
  C     -361.086    -306.223      50.264
  O     -359.711    -305.914      50.082
  C     -361.347    -307.383      51.230
  N     -361.094    -308.709      50.665
  C     -359.788    -309.184      50.674
  O     -358.819    -308.539      51.069
  N     -359.609    -310.447      50.170
  C     -360.582    -311.244      49.636
  O     -360.347    -312.357      49.171
  C     -361.938    -310.678      49.626
  C     -362.127    -309.456      50.132
  O     -364.347    -307.287      47.039
  O     -366.439    -306.285      48.082
  H     -359.662    -305.059      49.626
  H     -365.054    -307.902      46.765
  H     -358.667    -310.811      50.180
  H     -362.735    -311.287      49.211
  H     -363.122    -309.030      50.146
  H     -360.739    -307.251      52.132
  H     -361.520    -306.409      49.273
  H     -362.107    -304.281      50.286
  H     -363.381    -305.482      52.464
  H     -365.227    -306.015      51.136
  H     -364.453    -304.717      50.204
  P     -361.483    -303.175      52.666
  C     -359.307    -302.081      51.711
  O     -360.087    -302.404      52.840
  O     -361.887    -303.550      54.177
  O     -362.564    -302.461      51.926
  H     -361.268    -304.175      54.588
  H     -359.929    -301.738      50.879
  H     -358.731    -302.958      51.398
  H     -358.613    -301.284      51.983
  H     -364.576    -303.164      46.314
  H     -366.035    -303.745      47.080
  H     -365.357    -304.610      45.721

 3  4  5  6  7  8  9  10  11  12  13  23  28  29  30  31  32 0
 6-311+G(2d,p)
 ****
 33  34 0
 6-311+G(2d,p)
 ****
 1  2  14  15  16  17  18  19  20  21  22  24  25  26 0
 3-21G
 ****
 27  35  36  37  38  39  40  41  42  43  44  45 0
 3-21G
 ****


