%nproc=1
%NoSave
%Mem=1900MB
#P OB98/GEN NMR

erre ene a

0 1
  C     -217.754    -566.461     -10.747
  O     -217.893    -565.929     -12.050
  H     -217.424    -567.501     -10.830
  H     -218.716    -566.441     -10.232
  H     -217.010    -565.900     -10.176
  P     -218.235    -564.372     -12.223
  C     -220.513    -564.909     -13.315
  O     -219.837    -564.236     -12.261
  C     -222.020    -564.631     -13.258
  O     -222.570    -565.289     -12.083
  C     -222.366    -563.141     -13.172
  O     -223.549    -562.892     -13.934
  C     -222.655    -562.935     -11.693
  O     -223.537    -561.836     -11.462
  C     -223.247    -564.285     -11.293
  N     -225.675    -565.034      -6.919
  C     -226.168    -564.879      -8.205
  N     -227.520    -564.913      -8.340
  N     -225.414    -564.706      -9.257
  C     -224.089    -564.716      -8.978
  C     -223.471    -564.866      -7.753
  C     -224.326    -565.030      -6.589
  O     -223.940    -565.159      -5.427
  N     -222.106    -564.801      -7.868
  C     -221.896    -564.620      -9.162
  N     -223.068    -564.550      -9.875
  O     -217.529    -563.690     -13.353
  O     -217.848    -563.725     -10.815
  H     -224.366    -562.020     -11.948
  H     -217.019    -563.219     -10.875
  H     -226.303    -565.157      -6.148
  H     -220.924    -564.530      -9.631
  H     -224.322    -564.348     -11.498
  H     -221.720    -562.741     -11.159
  H     -228.153    -565.067      -7.574
  H     -221.558    -562.507     -13.532
  H     -227.900    -564.832      -9.278
  H     -222.490    -565.097     -14.134
  H     -220.332    -565.992     -13.203
  H     -220.102    -564.583     -14.275
  P     -223.430    -562.079     -15.312
  C     -222.926    -559.710     -14.439
  O     -222.407    -560.853     -15.107
  O     -224.721    -561.720     -15.963
  O     -222.587    -563.081     -16.246
  H     -222.893    -562.995     -17.172
  H     -222.162    -558.965     -14.361
  H     -223.255    -559.988     -13.459
  H     -223.752    -559.317     -14.994

 6  7  8  9  10  11  12  13  14  15  26  29  33  34 0
 6-311+G(2d,p)
 ****
 36  38  39  40  41 0
 6-311+G(2d,p)
 ****
 1  2  3  4  5  16  17  18  19  20  21  22  23  24  25 0
 3-21G
 ****
 27  28  30  31  32  35  37  42  43  44  45  46  47 0
 3-21G
 ****
 48  49 0
 3-21G
 ****


