%nproc=1
%NoSave
%Mem=1900MB
#P OB98/GEN NMR

erre ene a

0 1
  C       54.007     -35.880      -6.971
  O       53.990     -36.120      -8.361
  H       53.733     -34.836      -6.795
  H       55.014     -36.050      -6.581
  H       53.296     -36.522      -6.445
  P       53.915     -37.632      -8.879
  C       55.716     -39.431      -9.297
  O       55.286     -38.359      -8.468
  C       57.172     -39.812      -9.027
  O       58.038     -38.684      -9.276
  C       57.407     -40.212      -7.570
  O       57.108     -41.560      -7.256
  C       58.897     -39.929      -7.407
  O       59.683     -41.050      -7.846
  C       59.117     -38.726      -8.326
  N       61.896     -35.638      -5.354
  C       62.196     -36.906      -5.811
  N       63.357     -37.440      -5.371
  N       61.417     -37.588      -6.608
  C       60.247     -36.968      -6.886
  C       59.833     -35.718      -6.481
  C       60.728     -34.948      -5.642
  O       60.507     -33.824      -5.205
  N       58.582     -35.421      -6.966
  C       58.212     -36.516      -7.598
  N       59.199     -37.473      -7.600
  O       54.063     -37.492     -10.470
  O       52.663     -38.372      -8.518
  H       60.612     -40.765      -7.915
  H       53.634     -38.246     -10.911
  H       62.546     -35.149      -4.765
  H       57.257     -36.658      -8.092
  H       60.046     -38.826      -8.902
  H       59.162     -39.749      -6.361
  H       63.931     -37.001      -4.668
  H       56.856     -39.546      -6.899
  H       63.484     -38.449      -5.464
  H       57.470     -40.609      -9.718
  H       55.604     -39.094     -10.329
  H       55.063     -40.298      -9.166
  P       56.213     -41.904      -5.974
  C       56.704     -42.122      -3.428
  O       57.119     -41.627      -4.682
  O       56.109     -43.499      -6.033
  O       54.870     -41.260      -5.955
  H       55.276     -43.767      -6.464
  H       57.420     -41.848      -2.682
  H       56.626     -43.188      -3.473
  H       55.751     -41.705      -3.178

 6  7  8  9  10  11  12  13  14  15  26  29  33  34 0
 6-311+G(2d,p)
 ****
 36  38  39  40  41 0
 6-311+G(2d,p)
 ****
 1  2  3  4  5  16  17  18  19  20  21  22  23  24  25 0
 3-21G
 ****
 27  28  30  31  32  35  37  42  43  44  45  46  47 0
 3-21G
 ****
 48  49 0
 3-21G
 ****


