%nproc=1
%NoSave
%Mem=1900MB
#P OB98/GEN NMR

erre ene a

0 1
  C      730.129      20.452     147.786
  O      730.778      19.922     146.640
  P      730.002      18.768     145.829
  C      731.883      17.035     146.380
  O      731.116      17.708     145.388
  C      732.523      15.788     145.793
  O      731.502      14.893     145.276
  C      733.463      16.057     144.604
  O      734.739      16.448     145.084
  C      733.457      14.714     143.892
  O      734.355      13.778     144.532
  C      731.996      14.270     144.059
  N      730.879      13.250     139.226
  C      731.932      12.822     139.999
  N      732.785      11.955     139.424
  N      732.134      13.187     141.236
  C      731.205      14.076     141.693
  C      730.124      14.607     141.001
  C      729.886      14.138     139.653
  O      728.919      14.417     138.949
  N      729.424      15.488     141.793
  C      730.055      15.477     142.938
  N      731.133      14.618     142.943
  O      729.592      19.505     144.465
  O      728.827      18.178     146.538
  H      735.255      14.162     144.565
  H      728.657      19.800     144.503
  H      730.770      12.925     138.272
  H      729.769      16.051     143.808
  H      731.905      13.177     144.198
  H      733.782      14.794     142.846
  H      732.726      11.638     138.467
  H      733.042      16.825     143.951
  H      733.559      11.614     139.983
  H      733.050      15.258     146.583
  H      731.230      16.753     147.209
  H      732.664      17.716     146.757
  P      735.419      17.742     144.417
  C      737.765      16.596     144.384
  O      736.983      17.698     144.798
  O      734.836      18.964     145.270
  O      735.123      17.913     142.956
  H      734.684      19.721     144.700
  H      738.785      16.939     144.239
  H      737.388      16.176     143.436
  H      737.749      15.827     145.159
  H      730.747      21.205     148.229
  H      729.959      19.668     148.494
  H      729.193      20.883     147.498

 3  4  5  6  7  8  9  10  11  12  23  26  30  31 0
 6-311+G(2d,p)
 ****
 33  35  36  37  38 0
 6-311+G(2d,p)
 ****
 1  2  13  14  15  16  17  18  19  20  21  22  24  25 0
 3-21G
 ****
 27  28  29  32  34  39  40  41  42  43  44  45  46  47  48  49 0
 3-21G
 ****


