%nproc=1
%NoSave
%Mem=1900MB
#P OB98/GEN NMR

erre ene a

0 1
  C       -6.706    -145.430     -61.343
  O       -6.063    -145.907     -62.525
  P       -5.770    -144.879     -63.722
  C       -3.855    -146.362     -64.579
  O       -5.048    -145.670     -64.918
  C       -4.078    -147.873     -64.427
  O       -4.675    -148.432     -65.627
  C       -2.800    -148.673     -64.139
  O       -3.163    -149.740     -63.256
  C       -2.439    -149.210     -65.510
  O       -1.544    -150.308     -65.446
  C       -3.835    -149.519     -66.060
  N       -3.845    -149.665     -67.507
  C       -4.139    -150.929     -68.020
  O       -4.273    -151.887     -67.257
  N       -4.241    -151.078     -69.382
  C       -3.926    -150.089     -70.158
  N       -4.059    -150.269     -71.500
  C       -3.436    -148.792     -69.653
  C       -3.446    -148.644     -68.332
  O       -5.109    -143.602     -63.322
  O       -7.234    -144.603     -64.318
  H       -1.362    -150.626     -66.356
  H       -7.279    -143.676     -64.626
  H       -3.108    -148.026     -70.339
  H       -3.113    -147.729     -67.864
  H       -4.235    -150.439     -65.614
  H       -1.961    -148.419     -66.101
  H       -2.008    -148.078     -63.674
  H       -4.794    -148.026     -63.608
  H       -4.372    -151.172     -71.833
  H       -3.464    -145.961     -63.639
  H       -3.883    -149.529     -72.169
  H       -3.093    -146.152     -65.337
  P       -2.547    -149.766     -61.774
  C       -4.306    -151.298     -60.629
  O       -2.979    -151.145     -61.084
  O       -3.486    -148.707     -61.013
  O       -1.115    -149.360     -61.649
  H       -2.998    -148.342     -60.252
  H       -4.495    -152.362     -60.455
  H       -5.025    -150.936     -61.368
  H       -4.440    -150.758     -59.687
  H       -6.825    -146.237     -60.651
  H       -7.667    -145.032     -61.595
  H       -6.108    -144.663     -60.897

 3  4  5  6  7  8  9  10  11  12  13  23  27  28  29  30  32 0
 6-311+G(2d,p)
 ****
 34  35 0
 6-311+G(2d,p)
 ****
 1  2  14  15  16  17  18  19  20  21  22  24  25  26 0
 3-21G
 ****
 31  33  36  37  38  39  40  41  42  43  44  45  46 0
 3-21G
 ****


