%nproc=1
%NoSave
%Mem=1900MB
#P OB98/GEN NMR

erre ene a

0 1
  C      -51.813     276.395    -321.295
  O      -52.660     276.384    -320.156
  P      -54.242     276.166    -320.405
  C      -56.129     277.668    -321.366
  O      -54.724     277.476    -321.210
  C      -56.513     279.088    -320.952
  O      -55.913     280.038    -321.868
  C      -58.010     279.375    -320.991
  O      -58.669     278.896    -319.832
  C      -58.020     280.905    -321.039
  O      -57.850     281.434    -319.710
  C      -56.773     281.198    -321.906
  N      -58.913     284.531    -325.066
  C      -58.775     284.582    -323.687
  N      -59.254     285.678    -323.078
  N      -58.213     283.626    -322.978
  C      -57.750     282.603    -323.735
  C      -57.828     282.444    -325.106
  C      -58.484     283.467    -325.876
  O      -58.709     283.470    -327.083
  N      -57.240     281.265    -325.508
  C      -56.762     280.743    -324.395
  N      -57.091     281.508    -323.282
  O      -54.869     276.371    -318.954
  O      -54.616     274.841    -321.008
  H      -58.736     281.402    -319.294
  H      -55.718     275.896    -318.890
  H      -59.329     285.299    -325.573
  H      -56.176     279.829    -324.349
  H      -56.191     282.039    -321.477
  H      -58.944     281.303    -321.439
  H      -59.563     286.509    -323.573
  H      -58.466     278.976    -321.903
  H      -59.130     285.758    -322.075
  H      -56.111     279.273    -319.943
  H      -56.670     276.954    -320.716
  H      -56.410     277.471    -322.411
  P      -60.260     278.692    -319.940
  C      -62.140     280.447    -320.409
  O      -60.897     280.169    -319.782
  O      -60.632     277.956    -318.578
  O      -60.697     277.917    -321.143
  H      -61.453     277.433    -318.689
  H      -62.797     279.572    -320.398
  H      -61.945     280.750    -321.444
  H      -62.616     281.268    -319.871
  H      -50.800     276.547    -320.985
  H      -52.108     277.187    -321.951
  H      -51.892     275.459    -321.808

 3  4  5  6  7  8  9  10  11  12  23  26  30  31  33  0
 6-311+G(2d,p)
 ****
 35  36  37  38 0
 6-311+G(2d,p)
 ****
 1  2  13  14  15  16  17  18  19  20  21  22  24  25  27  28  29 0
 3-21G
 ****
 32  34  39  40  41  42  43  44  45  46  47  48  49 0
 3-21G
 ****


