%nproc=1
%NoSave
%Mem=1900MB
#P OB98/GEN NMR

erre ene a

0 1
  C      376.407    -119.876     109.762
  O      377.124    -120.426     110.872
  P      376.240    -121.057     112.059
  C      376.742    -119.238     113.853
  O      375.775    -119.847     113.006
  C      376.088    -118.194     114.755
  O      375.643    -117.056     113.997
  C      374.851    -118.692     115.488
  O      375.189    -119.465     116.630
  C      374.202    -117.378     115.899
  O      374.816    -116.885     117.104
  C      374.534    -116.459     114.712
  N      369.895    -114.521     114.064
  C      370.720    -114.490     115.172
  N      370.256    -113.821     116.248
  N      371.898    -115.057     115.217
  C      372.244    -115.662     114.054
  C      371.517    -115.764     112.895
  C      370.202    -115.156     112.868
  O      369.416    -115.184     111.925
  N      372.204    -116.445     111.925
  C      373.362    -116.733     112.489
  N      373.428    -116.290     113.789
  O      377.329    -121.824     112.949
  O      375.158    -121.969     111.589
  H      374.368    -116.047     117.334
  H      376.910    -122.564     113.425
  H      368.997    -114.073     114.088
  H      374.178    -117.252     112.004
  H      374.860    -115.466     115.044
  H      373.134    -117.480     116.109
  H      369.392    -113.300     116.260
  H      374.184    -119.237     114.808
  H      370.864    -113.759     117.059
  H      376.840    -117.857     115.481
  H      377.514    -118.758     113.245
  H      377.238    -120.015     114.443
  P      375.322    -121.051     116.429
  C      373.077    -121.709     117.545
  O      373.822    -121.602     116.349
  O      375.846    -121.554     117.855
  O      376.236    -121.458     115.321
  H      376.377    -122.365     117.754
  H      373.214    -120.833     118.179
  H      373.382    -122.611     118.088
  H      372.016    -121.797     117.292
  H      377.101    -119.491     109.045
  H      375.772    -119.086     110.104
  H      375.812    -120.641     109.308

 3  4  5  6  7  8  9  10  11  12  23  26  30  31  33  0
 6-311+G(2d,p)
 ****
 35  36  37  38 0
 6-311+G(2d,p)
 ****
 1  2  13  14  15  16  17  18  19  20  21  22  24  25  27  28  29 0
 3-21G
 ****
 32  34  39  40  41  42  43  44  45  46  47  48  49 0
 3-21G
 ****


