%nproc=1
%NoSave
%Mem=1900MB
#P OB98/GEN NMR

erre ene a

0 1
  C      -40.997     -69.622     113.150
  O      -42.215     -70.272     113.457
  H      -40.940     -69.478     112.068
  H      -40.146     -70.230     113.467
  H      -40.954     -68.642     113.635
  P      -42.533     -70.600     114.992
  C      -42.431     -73.100     114.355
  O      -41.985     -72.086     115.246
  C      -41.262     -73.991     113.951
  O      -40.402     -73.302     113.021
  C      -40.378     -74.423     115.121
  O      -40.964     -75.517     115.806
  C      -39.103     -74.793     114.380
  O      -39.265     -76.077     113.747
  C      -39.030     -73.683     113.318
  N      -34.454     -71.556     113.808
  C      -34.803     -72.830     113.400
  N      -33.780     -73.668     113.126
  N      -36.037     -73.247     113.293
  C      -36.948     -72.322     113.669
  C      -36.727     -71.035     114.105
  C      -35.359     -70.565     114.167
  O      -35.007     -69.440     114.505
  N      -37.897     -70.416     114.459
  C      -38.828     -71.312     114.200
  N      -38.303     -72.494     113.732
  O      -43.950     -70.395     115.435
  O      -41.507     -69.684     115.807
  H      -39.507     -76.706     114.451
  H      -41.908     -68.827     116.040
  H      -33.485     -71.300     113.888
  H      -39.893     -71.158     114.331
  H      -38.575     -74.029     112.384
  H      -38.232     -74.857     115.031
  H      -32.841     -73.494     113.461
  H      -40.159     -73.589     115.794
  H      -34.011     -74.620     112.873
  H      -41.670     -74.864     113.425
  H      -42.857     -72.604     113.477
  H      -43.209     -73.708     114.829
  P      -41.289     -75.432     117.377
  C      -39.570     -77.346     117.621
  O      -40.015     -76.083     118.100
  O      -42.599     -76.018     117.778
  O      -41.135     -73.884     117.735
  H      -41.968     -73.366     117.612
  H      -38.719     -77.663     118.187
  H      -39.300     -77.261     116.589
  H      -40.356     -78.064     117.726

 6  7  8  9  10  11  12  13  14  15  26  29  33  34 0
 6-311+G(2d,p)
 ****
 36  38  39  40  41 0
 6-311+G(2d,p)
 ****
 1  2  3  4  5  16  17  18  19  20  21  22  23  24  25 0
 3-21G
 ****
 27  28  30  31  32  35  37  42  43  44  45  46  47 0
 3-21G
 ****
 48  49 0
 3-21G
 ****


