%nproc=1
%NoSave
%Mem=1900MB
#P OB98/GEN NMR

erre ene a

0 1
  C      304.309    -125.493     632.733
  O      303.282    -124.955     631.901
  P      302.576    -125.845     630.771
  C      303.350    -126.895     628.547
  O      303.685    -126.008     629.618
  C      303.679    -126.236     627.211
  O      305.134    -126.138     627.089
  C      303.225    -126.993     625.954
  O      301.867    -126.761     625.584
  C      304.161    -126.395     624.917
  O      303.664    -125.100     624.506
  C      305.472    -126.252     625.690
  N      308.843    -128.415     622.508
  C      308.134    -127.249     622.428
  N      307.241    -126.767     623.307
  C      307.140    -127.568     624.376
  C      307.793    -128.765     624.593
  C      308.685    -129.201     623.604
  N      309.425    -130.356     623.687
  N      307.425    -129.326     625.813
  C      306.553    -128.469     626.312
  N      306.359    -127.382     625.492
  O      301.247    -125.336     630.317
  O      302.500    -127.314     631.413
  H      302.722    -125.207     624.283
  H      301.861    -127.857     630.916
  H      308.299    -126.660     621.542
  H      306.049    -128.569     627.261
  H      306.025    -125.340     625.412
  H      304.220    -127.001     624.011
  H      303.430    -128.068     626.049
  H      303.274    -125.203     627.215
  H      302.269    -127.100     628.596
  H      310.130    -130.502     622.980
  H      309.430    -130.850     624.580
  H      303.897    -127.837     628.670
  P      301.081    -127.973     624.877
  C      301.358    -129.208     622.589
  O      301.798    -128.168     623.456
  O      299.599    -127.804     624.851
  O      301.558    -129.250     625.731
  H      302.511    -129.480     625.622
  H      301.854    -129.069     621.635
  H      300.277    -129.157     622.435
  H      301.639    -130.180     622.999
  H      304.645    -124.741     633.416
  H      305.129    -125.814     632.125
  H      303.923    -126.327     633.282

 3  4  5  6  7  8  9  10  11  12  22  25  29  30  31  32 0
 6-311+G(2d,p)
 ****
 33  36  37 0
 6-311+G(2d,p)
 ****
 1  2  13  14  15  16  17  18  19  20  21  23  24  26 0
 3-21G
 ****
 27  28  34  35  38  39  40  41  42  43  44  45  46  47  48 0
 3-21G
 ****


