%nproc=1
%NoSave
%Mem=1900MB
#P OB98/GEN NMR

erre ene a

0 1
  C      117.418      13.494     194.280
  O      118.185      12.578     193.495
  P      119.044      11.494     194.308
  C      117.021       9.926     194.731
  O      118.051      10.719     195.302
  C      117.352       8.437     194.857
  O      117.516       8.025     196.228
  C      116.279       7.528     194.275
  O      116.405       7.468     192.865
  C      116.587       6.204     194.962
  O      117.627       5.484     194.269
  C      117.076       6.648     196.350
  N      115.423       3.832     200.226
  C      116.375       3.546     199.265
  N      116.990       2.350     199.368
  N      116.694       4.361     198.294
  C      115.999       5.523     198.317
  C      115.054       5.932     199.230
  C      114.707       5.019     200.299
  O      113.888       5.235     201.185
  N      114.613       7.203     198.962
  C      115.198       7.506     197.817
  N      116.097       6.549     197.417
  O      119.944      12.391     195.281
  O      119.881      10.621     193.434
  H      117.296       5.213     193.393
  H      120.877      12.352     194.997
  H      115.210       3.164     200.946
  H      115.026       8.411     197.254
  H      117.944       6.062     196.676
  H      115.717       5.543     194.980
  H      116.796       1.674     200.091
  H      115.283       7.882     194.571
  H      117.697       2.123     198.678
  H      118.304       8.267     194.337
  H      116.888      10.185     193.680
  H      116.076      10.159     195.235
  P      115.191       6.839     192.030
  C      113.572       8.823     192.443
  O      113.834       7.446     192.622
  O      115.173       5.311     192.511
  O      115.344       6.934     190.547
  H      115.059       4.726     191.739
  H      112.489       8.972     192.402
  H      114.016       9.204     191.519
  H      113.974       9.379     193.293
  H      116.891      14.164     193.633
  H      118.072      14.053     194.916
  H      116.717      12.951     194.878

 3  4  5  6  7  8  9  10  11  12  23  26  30  31 0
 6-311+G(2d,p)
 ****
 33  35  36  37  38 0
 6-311+G(2d,p)
 ****
 1  2  13  14  15  16  17  18  19  20  21  22  24  25 0
 3-21G
 ****
 27  28  29  32  34  39  40  41  42  43  44  45  46  47  48  49 0
 3-21G
 ****


