%nproc=1
%NoSave
%Mem=1900MB
#P OB98/GEN NMR

erre ene a

0 1
  C      -14.586    -214.113    -419.188
  O      -14.721    -212.767    -419.593
  H      -15.028    -214.244    -418.198
  H      -15.120    -214.750    -419.899
  H      -13.533    -214.410    -419.169
  P      -13.776    -211.686    -418.877
  C      -12.842    -210.863    -421.156
  O      -12.550    -211.421    -419.882
  C      -11.572    -210.761    -421.998
  O      -10.818    -212.000    -421.852
  C      -11.822    -210.540    -423.498
  O      -10.830    -209.637    -423.996
  C      -11.586    -211.914    -424.098
  O      -11.202    -211.859    -425.467
  C      -10.497    -212.457    -423.177
  N       -8.814    -216.375    -425.946
  C       -8.500    -215.061    -425.959
  N       -8.960    -214.090    -425.146
  C       -9.771    -214.601    -424.204
  C      -10.177    -215.915    -424.061
  C       -9.672    -216.827    -425.001
  N      -10.037    -218.153    -425.041
  N      -11.063    -216.034    -423.007
  C      -11.210    -214.807    -422.543
  N      -10.451    -213.906    -423.235
  O      -13.114    -212.539    -417.694
  O      -14.464    -210.465    -418.368
  H      -11.870    -211.344    -425.962
  H      -13.690    -212.508    -416.907
  H       -7.801    -214.749    -426.728
  H      -11.868    -214.516    -421.738
  H       -9.496    -212.083    -423.438
  H      -12.502    -212.512    -424.019
  H      -12.824    -210.152    -423.725
  H      -10.947    -209.958    -421.590
  H      -13.257    -209.861    -421.018
  H       -9.707    -218.709    -425.818
  H      -10.757    -218.481    -424.415
  H      -13.585    -211.487    -421.662
  P      -11.240    -208.093    -424.126
  C       -9.353    -207.349    -422.490
  O      -10.741    -207.319    -422.817
  O      -12.830    -208.117    -423.960
  O      -10.833    -207.466    -425.423
  H      -13.239    -207.412    -424.494
  H       -9.185    -206.788    -421.594
  H       -8.789    -206.919    -423.291
  H       -9.044    -208.362    -422.340

 6  7  8  9  10  11  12  13  14  15  25  28  32  33  34  35 0
 6-311+G(2d,p)
 ****
 36  39  40 0
 6-311+G(2d,p)
 ****
 1  2  3  4  5  16  17  18  19  20  21  22  23  24 0
 3-21G
 ****
 26  27  29  30  31  37  38  41  42  43  44  45  46  47 0
 3-21G
 ****
 48 0
 3-21G
 ****


