%nproc=1
%NoSave
%Mem=1900MB
#P OB98/GEN NMR

erre ene a

0 1
  C      -89.166    -899.420    -236.536
  O      -89.604    -898.080    -236.550
  H      -88.101    -899.450    -236.770
  H      -89.704    -900.000    -237.298
  H      -89.326    -899.870    -235.550
  P      -91.128    -897.810    -236.144
  C      -90.377    -896.950    -233.814
  O      -91.193    -897.860    -234.535
  C      -91.236    -895.950    -233.043
  O      -91.998    -896.670    -232.022
  C      -90.439    -894.840    -232.327
  O      -91.219    -893.640    -232.366
  C      -90.399    -895.320    -230.886
  O      -90.149    -894.270    -229.964
  C      -91.779    -895.960    -230.773
  N      -94.452    -896.890    -226.605
  C      -94.628    -895.950    -227.586
  N      -95.686    -895.100    -227.443
  N      -93.835    -895.820    -228.629
  C      -92.841    -896.740    -228.663
  C      -92.562    -897.730    -227.750
  C      -93.424    -897.840    -226.595
  O      -93.302    -898.660    -225.681
  N      -91.443    -898.450    -228.128
  C      -91.066    -897.900    -229.275
  N      -91.886    -896.850    -229.639
  O      -91.857    -899.160    -236.597
  O      -91.752    -896.600    -236.767
  H      -89.269    -893.910    -230.161
  H      -92.222    -899.060    -237.501
  H      -95.067    -896.930    -225.817
  H      -90.220    -898.210    -229.872
  H      -92.576    -895.210    -230.670
  H      -89.607    -896.090    -230.764
  H      -96.357    -895.170    -226.701
  H      -89.446    -894.650    -232.759
  H      -95.857    -894.430    -228.184
  H      -91.972    -895.510    -233.738
  H      -89.737    -896.400    -234.521
  H      -89.745    -897.500    -233.118
  P      -90.757    -892.470    -233.371
  C      -91.909    -893.370    -235.527
  O      -90.683    -893.090    -234.852
  O      -89.207    -892.270    -232.997
  O      -91.517    -891.200    -233.229
  H      -88.936    -891.360    -233.190
  H      -91.699    -893.775    -236.495
  H      -92.472    -892.466    -235.633
  H      -92.475    -894.078    -234.959

 6  7  8  9  10  11  12  13  14  15  26  29  33  34 0
 6-311+G(2d,p)
 ****
 36  38  39  40  41 0
 6-311+G(2d,p)
 ****
 1  2  3  4  5  16  17  18  19  20  21  22  23  24  25 0
 3-21G
 ****
 27  28  30  31  32  35  37  42  43  44  45  46  47 0
 3-21G
 ****
 48  49 0
 3-21G
 ****


