%nproc=1
%NoSave
%Mem=1900MB
#P OB98/GEN NMR

erre ene a

0 1
  C      380.981    -322.375     112.569
  O      380.299    -323.361     111.829
  P      379.334    -324.448     112.477
  C      376.930    -323.891     111.615
  O      377.882    -323.794     112.667
  C      375.498    -323.817     112.161
  O      375.234    -325.023     112.924
  C      375.321    -322.630     113.127
  O      374.093    -321.932     112.964
  C      375.594    -323.258     114.487
  O      375.068    -322.509     115.572
  C      375.023    -324.660     114.306
  N      374.156    -328.464     117.559
  C      373.274    -327.833     116.704
  N      371.966    -328.128     116.881
  N      373.640    -326.964     115.800
  C      374.965    -326.685     115.823
  C      375.935    -327.248     116.619
  C      375.520    -328.232     117.591
  O      376.249    -328.735     118.441
  N      377.161    -326.674     116.412
  C      376.931    -325.733     115.517
  N      375.602    -325.682     115.154
  O      379.893    -325.257     113.603
  O      379.092    -325.449     111.230
  H      375.572    -321.674     115.624
  H      379.004    -326.350     111.601
  H      373.800    -329.070     118.291
  H      377.669    -325.051     115.122
  H      373.949    -324.682     114.496
  H      376.681    -323.293     114.622
  H      371.642    -328.679     117.660
  H      376.076    -321.864     112.931
  H      371.290    -327.501     116.450
  H      374.792    -323.788     111.325
  H      377.102    -324.860     111.135
  H      377.101    -323.111     110.868
  P      373.800    -320.373     113.139
  C      373.662    -319.587     110.699
  O      374.430    -319.596     111.886
  O      374.735    -319.909     114.349
  O      372.374    -320.035     113.424
  H      374.252    -319.267     114.907
  H      374.304    -319.278     109.870
  H      372.839    -318.876     110.799
  H      373.262    -320.587     110.491
  H      381.563    -321.770     111.905
  H      381.627    -322.846     113.280
  H      380.272    -321.761     113.083

 3  4  5  6  7  8  9  10  11  12  23  26  30  31 0
 6-311+G(2d,p)
 ****
 33  35  36  37  38 0
 6-311+G(2d,p)
 ****
 1  2  13  14  15  16  17  18  19  20  21  22  24  25 0
 3-21G
 ****
 27  28  29  32  34  39  40  41  42  43  44  45  46  47  48  49 0
 3-21G
 ****


