%nproc=1
%NoSave
%Mem=1900MB
#P OB98/GEN NMR

erre ene a

0 1
  C     -335.750     314.395     415.141
  O     -336.107     315.750     415.334
  H     -334.698     314.268     415.409
  H     -335.884     314.115     414.094
  H     -336.358     313.748     415.779
  P     -337.628     316.145     415.015
  C     -339.360     317.760     416.093
  O     -338.118     317.076     416.226
  C     -339.829     318.243     417.462
  O     -340.040     317.106     418.333
  C     -338.822     319.125     418.186
  O     -338.823     320.457     417.703
  C     -339.301     318.999     419.622
  O     -340.378     319.907     419.895
  C     -339.794     317.551     419.689
  N     -338.370     315.544     424.160
  C     -339.421     316.317     423.814
  N     -339.738     316.801     422.592
  C     -338.851     316.387     421.675
  C     -337.732     315.592     421.881
  C     -337.502     315.160     423.197
  N     -336.418     314.396     423.552
  N     -337.043     315.416     420.698
  C     -337.733     316.077     419.791
  N     -338.836     316.679     420.337
  O     -338.415     314.769     415.249
  O     -337.867     316.696     413.650
  H     -340.645     319.742     420.823
  H     -338.587     314.343     414.389
  H     -340.093     316.593     424.624
  H     -337.472     316.161     418.743
  H     -340.738     317.459     420.238
  H     -338.493     319.224     420.320
  H     -337.813     318.689     418.108
  H     -340.789     318.763     417.343
  H     -340.105     317.078     415.674
  H     -339.227     318.606     415.411
  H     -336.279     314.180     424.528
  H     -335.706     314.204     422.863
  P     -337.593     321.401     418.111
  C     -336.642     323.685     417.289
  O     -337.594     322.647     417.102
  O     -336.303     320.557     417.666
  O     -337.551     321.770     419.557
  H     -335.573     320.712     418.307
  H     -336.778     324.434     416.537
  H     -335.654     323.281     417.215
  H     -336.777     324.123     418.256

 6  7  8  9  10  11  12  13  14  15  25  28  32  33  34  35 0
 6-311+G(2d,p)
 ****
 36  37  40 0
 6-311+G(2d,p)
 ****
 1  2  3  4  5  16  17  18  19  20  21  22  23  24 0
 3-21G
 ****
 26  27  29  30  31  38  39 41  42  43  44  45  46  47  48 0
 3-21G
 ****


