%nproc=1
%NoSave
%Mem=1900MB
#P OB98/GEN NMR

erre ene a

0 1
  C      267.977     112.651     267.780
  O      267.280     111.509     267.333
  H      268.768     112.880     267.062
  H      268.433     112.444     268.752
  H      267.316     113.516     267.863
  P      265.822     111.218     267.921
  C      265.265     110.082     265.671
  O      265.180     110.004     267.088
  C      265.031     108.721     265.015
  O      264.055     107.978     265.775
  C      264.483     108.843     263.590
  O      265.476     108.975     262.588
  C      263.718     107.531     263.434
  O      264.573     106.483     262.949
  C      263.247     107.222     264.859
  N      258.388     105.951     263.908
  C      259.542     105.461     263.325
  N      259.369     104.547     262.346
  N      260.742     105.849     263.668
  C      260.750     106.838     264.591
  C      259.673     107.418     265.223
  C      258.352     106.929     264.890
  O      257.301     107.318     265.388
  N      260.066     108.423     266.073
  C      261.368     108.506     265.886
  N      261.840     107.514     265.058
  O      264.960     112.474     267.415
  O      265.740     111.088     269.411
  H      264.855     106.718     262.043
  H      264.262     112.673     268.065
  H      257.495     105.593     263.623
  H      262.022     109.231     266.359
  H      263.390     106.164     265.107
  H      262.908     107.637     262.708
  H      258.470     104.277     261.985
  H      263.765     109.665     263.520
  H      260.175     104.304     261.767
  H      265.963     108.143     265.038
  H      266.269     110.441     265.439
  H      264.554     110.819     265.288
  P      265.377     110.125     261.482
  C      267.882     110.862     261.761
  O      266.843     110.412     260.920
  O      265.050     111.430     262.347
  O      264.365     109.898     260.407
  H      264.096     111.627     262.325
  H      268.775     110.991     261.186
  H      268.055     110.140     262.532
  H      267.604     111.796     262.203

 6  7  8  9  10  11  12  13  14  15  26  29  33  34 0
 6-311+G(2d,p)
 ****
 36  38  39  40  41 0
 6-311+G(2d,p)
 ****
 1  2  3  4  5  16  17  18  19  20  21  22  23  24  25 0
 3-21G
 ****
 27  28  30  31  32  35  37  42  43  44  45  46  47 0
 3-21G
 ****
 48  49 0
 3-21G
 ****


