%nproc=1
%NoSave
%Mem=1900MB
#P OB98/GEN NMR

erre ene a

0 1
  C       20.325    -224.128     176.888
  O       19.496    -223.397     177.768
  H       20.574    -223.496     176.034
  H       19.787    -225.011     176.528
  H       21.249    -224.433     177.387
  P       19.258    -224.012     179.230
  C       17.666    -225.820     178.268
  O       18.835    -225.550     179.031
  C       17.166    -227.238     178.550
  O       16.773    -227.328     179.946
  C       15.955    -227.644     177.703
  O       16.089    -229.021     177.331
  C       14.781    -227.483     178.653
  O       13.671    -228.310     178.304
  C       15.426    -227.836     179.986
  N       14.978    -227.851     185.008
  C       15.900    -228.484     184.189
  N       16.842    -229.234     184.804
  N       15.897    -228.378     182.887
  C       14.923    -227.565     182.418
  C       13.952    -226.892     183.114
  C       13.946    -227.036     184.558
  O       13.145    -226.524     185.332
  N       13.124    -226.194     182.273
  C       13.592    -226.448     181.066
  N       14.693    -227.266     181.101
  O       17.899    -223.308     179.703
  O       20.361    -223.782     180.209
  H       13.412    -228.084     177.386
  H       18.078    -222.739     180.477
  H       15.020    -227.975     186.007
  H       13.178    -226.072     180.142
  H       15.475    -228.921     180.151
  H       14.444    -226.440     178.647
  H       16.933    -229.319     185.800
  H       15.837    -227.038     176.799
  H       17.548    -229.672     184.228
  H       17.994    -227.936     178.405
  H       17.904    -225.719     177.205
  H       16.889    -225.094     178.529
  P       16.933    -229.342     176.004
  C       15.049    -229.349     174.222
  O       16.180    -228.666     174.753
  O       16.691    -230.909     175.787
  O       18.386    -229.021     176.119
  H       17.506    -231.404     176.003
  H       14.649    -228.792     173.401
  H       14.303    -229.448     174.982
  H       15.345    -230.320     173.884

 6  7  8  9  10  11  12  13  14  15  26  29  33  34 0
 6-311+G(2d,p)
 ****
 36  38  39  40  41 0
 6-311+G(2d,p)
 ****
 1  2  3  4  5  16  17  18  19  20  21  22  23  24  25 0
 3-21G
 ****
 27  28  30  31  32  35  37  42  43  44  45  46  47 0
 3-21G
 ****
 48  49 0
 3-21G
 ****


