%nproc=1
%NoSave
%Mem=1900MB
#P OB98/GEN NMR

erre ene a

0 1
  C      325.296     388.169    -521.119
  O      324.204     388.260    -522.015
  P      323.917     387.001    -522.968
  C      322.857     385.633    -521.024
  O      323.899     385.721    -522.002
  C      322.065     384.337    -521.212
  O      321.251     384.433    -522.398
  C      322.923     383.103    -521.392
  O      323.439     382.665    -520.160
  C      321.926     382.139    -522.029
  O      321.173     381.443    -521.018
  C      321.012     383.083    -522.847
  N      321.227     382.953    -524.283
  C      320.767     381.758    -524.858
  O      320.241     380.890    -524.155
  N      320.957     381.572    -526.210
  C      321.544     382.485    -526.911
  N      321.700     382.239    -528.241
  C      322.061     383.738    -526.339
  C      321.871     383.912    -525.031
  O      325.291     386.843    -523.772
  O      322.739     387.162    -523.873
  H      320.455     380.973    -521.504
  H      325.141     386.414    -524.634
  H      322.553     384.475    -526.969
  H      322.221     384.803    -524.526
  H      319.957     382.862    -522.642
  H      322.427     381.370    -522.632
  H      323.738     383.307    -522.107
  H      321.392     384.221    -520.347
  H      321.348     381.366    -528.604
  H      322.177     386.487    -521.137
  H      322.131     382.895    -528.877
  H      323.310     385.669    -520.028
  P      324.690     381.662    -520.179
  C      326.509     383.265    -520.994
  O      325.645     382.214    -521.344
  O      324.050     380.357    -520.863
  O      325.344     381.350    -518.876
  H      324.693     379.622    -520.837
  H      327.205     383.437    -521.822
  H      327.085     383.006    -520.104
  H      325.941     384.187    -520.822
  H      325.368     389.073    -520.551
  H      326.200     388.023    -521.672
  H      325.146     387.343    -520.456

 3  4  5  6  7  8  9  10  11  12  13  21  23  27  28  29  30  32 0
 6-311+G(2d,p)
 ****
 34  35 0
 6-311+G(2d,p)
 ****
 1  2  14  15  16  17  18  19  20  22  24  25  26 0
 3-21G
 ****
 31  33  36  37  38  39  40  41  42  43  44  45  46 0
 3-21G
 ****


