%nproc=1
%NoSave
%Mem=1900MB
#P OB98/GEN NMR

erre ene a

0 1
  C       58.627     260.193    -150.635
  O       58.647     260.741    -151.936
  P       57.327     261.041    -152.783
  C       58.302     262.870    -154.346
  O       57.766     261.557    -154.240
  C       58.407     263.359    -155.801
  O       59.515     262.710    -156.451
  C       57.150     262.961    -156.580
  O       55.984     263.758    -156.513
  C       57.641     262.660    -157.992
  O       57.447     263.757    -158.886
  C       59.136     262.389    -157.798
  N       60.888     259.139    -161.275
  C       60.903     260.521    -161.293
  N       61.253     261.095    -162.463
  N       60.575     261.262    -160.262
  C       60.152     260.539    -159.196
  C       60.114     259.173    -159.053
  C       60.512     258.368    -160.184
  O       60.434     257.144    -160.243
  N       59.559     258.797    -157.857
  C       59.227     259.939    -157.284
  N       59.534     261.023    -158.076
  O       56.220     261.756    -152.075
  O       56.805     259.545    -153.098
  H       57.929     264.524    -158.528
  H       55.828     259.568    -153.103
  H       61.074     258.622    -162.127
  H       58.737     260.031    -156.324
  H       59.735     263.035    -158.453
  H       57.093     261.814    -158.421
  H       61.367     260.559    -163.313
  H       56.827     261.988    -156.185
  H       61.112     262.093    -162.563
  H       58.625     264.432    -155.836
  H       59.287     262.861    -153.872
  H       57.679     263.565    -153.780
  P       54.530     263.283    -156.044
  C       52.896     265.106    -155.310
  O       53.481     264.429    -156.408
  O       54.592     263.346    -154.445
  O       54.145     261.908    -156.490
  H       53.907     262.761    -154.063
  H       52.002     265.633    -155.647
  H       53.609     265.837    -154.913
  H       52.620     264.400    -154.519
  H       59.630     260.085    -150.278
  H       58.152     259.234    -150.659
  H       58.084     260.844    -149.982

 3  4  5  6  7  8  9  10  11  12  23  26  30  31 0
 6-311+G(2d,p)
 ****
 33  35  36  37  38 0
 6-311+G(2d,p)
 ****
 1  2  13  14  15  16  17  18  19  20  21  22  24  25 0
 3-21G
 ****
 27  28  29  32  34  39  40  41  42  43  44  45  46  47  48  49 0
 3-21G
 ****


