%nproc=1
%NoSave
%Mem=1900MB
#P OB98/GEN NMR

erre ene a

0 1
  C      -60.747     355.774    -143.981
  O      -60.650     354.465    -144.560
  P      -61.458     354.182    -145.914
  C      -63.180     352.615    -144.755
  O      -62.961     353.789    -145.525
  C      -64.680     352.373    -144.568
  O      -65.339     352.117    -145.829
  C      -65.000     351.176    -143.682
  O      -64.943     351.512    -142.303
  C      -66.438     350.890    -144.085
  O      -67.327     351.805    -143.407
  C      -66.417     351.179    -145.591
  N      -68.597     346.980    -147.378
  C      -69.121     347.987    -146.591
  N      -70.416     347.862    -146.237
  N      -68.433     349.026    -146.191
  C      -67.155     349.027    -146.638
  C      -66.523     348.087    -147.418
  C      -67.291     346.938    -147.844
  O      -66.875     346.006    -148.527
  N      -65.218     348.433    -147.657
  C      -65.067     349.588    -147.043
  N      -66.209     349.985    -146.393
  O      -60.843     352.787    -146.409
  O      -61.311     355.247    -146.950
  H      -68.215     351.656    -143.783
  H      -60.911     352.721    -147.377
  H      -69.170     346.201    -147.654
  H      -64.156     350.173    -147.038
  H      -67.344     351.647    -145.942
  H      -66.754     349.882    -143.811
  H      -71.017     347.118    -146.550
  H      -64.360     350.320    -143.928
  H      -70.827     348.610    -145.688
  H      -65.119     353.277    -144.126
  H      -62.696     352.708    -143.778
  H      -62.694     351.770    -145.247
  P      -63.625     351.102    -141.485
  C      -64.489     348.878    -140.460
  O      -63.639     349.501    -141.398
  O      -63.969     351.576    -139.996
  O      -62.364     351.720    -141.987
  H      -63.151     351.841    -139.535
  H      -64.490     347.802    -140.652
  H      -65.513     349.251    -140.555
  H      -64.121     349.055    -139.446
  H      -60.159     355.813    -143.088
  H      -61.769     355.985    -143.745
  H      -60.385     356.500    -144.679

 3  4  5  6  7  8  9  10  11  12  23  26  30  31 0
 6-311+G(2d,p)
 ****
 33  35  36  37  38 0
 6-311+G(2d,p)
 ****
 1  2  13  14  15  16  17  18  19  20  21  22  24  25 0
 3-21G
 ****
 27  28  29  32  34  39  40  41  42  43  44  45  46  47  48  49 0
 3-21G
 ****


