%nproc=1
%NoSave
%Mem=1900MB
#P OB98/GEN NMR

erre ene a

0 1
  C      -11.700     649.728     824.339
  O      -12.438     650.342     823.300
  H      -12.353     649.023     824.856
  H      -11.354     650.478     825.057
  H      -10.845     649.189     823.921
  P      -11.673     651.450     822.432
  C      -12.136     650.289     820.176
  O      -12.401     651.420     821.001
  C      -13.354     649.956     819.308
  O      -14.273     649.146     820.085
  C      -14.114     651.204     818.834
  O      -14.572     650.985     817.491
  C      -15.310     651.274     819.771
  O      -16.417     651.959     819.193
  C      -15.557     649.788     820.059
  N      -20.110     649.915     822.380
  C      -19.757     650.011     821.079
  N      -18.515     649.951     820.545
  C      -17.590     649.723     821.503
  C      -17.811     649.615     822.864
  C      -19.140     649.728     823.296
  N      -19.506     649.655     824.626
  N      -16.603     649.431     823.524
  C      -15.687     649.423     822.574
  N      -16.238     649.614     821.330
  O      -10.183     651.329     822.388
  O      -12.225     652.812     823.070
  H      -17.204     651.790     819.760
  H      -13.193     652.765     823.217
  H      -20.567     650.161     820.372
  H      -14.619     649.289     822.734
  H      -16.176     649.312     819.294
  H      -15.014     651.803     820.688
  H      -13.501     652.107     818.876
  H      -13.023     649.340     818.462
  H      -11.885     649.418     820.799
  H      -20.483     649.730     824.853
  H      -18.798     649.496     825.324
  H      -11.268     650.523     819.547
  P      -14.919     652.269     816.595
  C      -13.209     651.766     814.722
  O      -14.593     651.923     815.053
  O      -14.397     653.580     817.087
  O      -16.530     652.259     816.600
  H      -16.847     653.189     816.633
  H      -13.115     651.540     813.680
  H      -12.793     650.967     815.299
  H      -12.685     652.673     814.939

 6  7  8  9  10  11  12  13  14  15  25  28  32  33  34  35 0
 6-311+G(2d,p)
 ****
 36  39  40 0
 6-311+G(2d,p)
 ****
 1  2  3  4  5  16  17  18  19  20  21  22  23  24 0
 3-21G
 ****
 26  27  29  30  31  37  38  41  42  43  44  45  46  47 0
 3-21G
 ****
 48 0
 3-21G
 ****


