%nproc=1
%NoSave
%Mem=1900MB
#P OB98/GEN NMR

erre ene a

0 1
  C      -42.781    -283.964      -4.341
  O      -42.353    -284.887      -3.354
  H      -43.707    -283.492      -3.999
  H      -42.978    -284.484      -5.283
  H      -42.023    -283.192      -4.489
  P      -40.985    -285.672      -3.659
  C      -42.138    -287.912      -3.056
  O      -41.087    -286.999      -2.763
  C      -42.750    -288.454      -1.767
  O      -43.804    -289.389      -2.060
  C      -41.767    -289.204      -0.872
  O      -40.993    -288.300      -0.102
  C      -42.728    -290.002      -0.003
  O      -43.261    -289.157       1.036
  C      -43.849    -290.379      -0.995
  N      -46.177    -294.909      -1.639
  C      -46.481    -293.844      -0.864
  N      -45.792    -292.690      -0.711
  C      -44.684    -292.698      -1.465
  C      -44.243    -293.708      -2.306
  C      -45.050    -294.855      -2.387
  N      -44.742    -295.936      -3.188
  N      -43.057    -293.356      -2.916
  C      -42.812    -292.132      -2.493
  N      -43.748    -291.701      -1.585
  O      -39.735    -284.874      -3.520
  O      -41.276    -286.232      -5.130
  H      -44.103    -289.547       1.331
  H      -42.205    -286.513      -5.214
  H      -47.399    -293.929      -0.289
  H      -41.987    -291.512      -2.823
  H      -44.839    -290.316      -0.532
  H      -42.240    -290.843       0.492
  H      -41.150    -289.899      -1.449
  H      -43.204    -287.610      -1.230
  H      -41.759    -288.739      -3.671
  H      -45.278    -296.779      -3.061
  H      -43.844    -295.944      -3.647
  H      -42.893    -287.369      -3.634
  P      -39.389    -288.418      -0.077
  C      -39.097    -290.846      -0.869
  O      -39.056    -289.956       0.239
  O      -38.698    -287.441       0.805
  O      -38.952    -288.258      -1.606
  H      -38.122    -287.739      -1.669
  H      -38.860    -291.836      -0.540
  H      -38.384    -290.534      -1.604
  H      -40.078    -290.838      -1.297

 6  7  8  9  10  11  12  13  14  15  25  28  32  33  34  35 0
 6-311+G(2d,p)
 ****
 36  39  40 0
 6-311+G(2d,p)
 ****
 1  2  3  4  5  16  17  18  19  20  21  22  23  24 0
 3-21G
 ****
 26  27  29  30  31  37  38  41  42  43  44  45  46  47 0
 3-21G
 ****
 48 0
 3-21G
 ****


