%nproc=1
%NoSave
%Mem=1900MB
#P OB98/GEN NMR

erre ene a

0 1
  C     -186.606      59.645     493.958
  O     -186.500      60.549     495.036
  H     -187.144      60.137     493.143
  H     -187.169      58.762     494.269
  H     -185.621      59.344     493.597
  P     -185.489      60.212     496.229
  C     -186.942      62.047     497.318
  O     -185.734      61.305     497.378
  C     -186.655      63.538     497.097
  O     -185.822      64.022     498.181
  C     -185.878      63.772     495.797
  O     -186.135      65.061     495.244
  C     -184.432      63.712     496.258
  O     -183.535      64.389     495.375
  C     -184.527      64.343     497.644
  N     -182.196      65.027     502.126
  C     -183.095      65.847     501.473
  N     -183.417      67.006     502.103
  N     -183.614      65.574     500.303
  C     -183.145      64.423     499.763
  C     -182.241      63.538     500.301
  C     -181.701      63.837     501.609
  O     -180.884      63.153     502.222
  N     -182.005      62.486     499.451
  C     -182.763      62.736     498.402
  N     -183.492      63.887     498.554
  O     -184.060      60.642     495.647
  O     -185.488      58.787     496.694
  H     -183.578      63.934     494.514
  H     -183.348      60.176     496.119
  H     -181.851      65.272     503.036
  H     -182.830      62.111     497.522
  H     -184.454      65.434     497.579
  H     -184.123      62.664     496.286
  H     -182.894      67.337     502.896
  H     -186.082      63.015     495.044
  H     -183.813      67.743     501.515
  H     -187.589      64.110     497.135
  H     -187.460      61.891     498.267
  H     -187.590      61.657     496.530
  P     -186.538      65.161     493.696
  C     -185.325      67.485     493.339
  O     -186.481      66.684     493.219
  O     -188.097      64.815     493.681
  O     -185.754      64.256     492.795
  H     -188.257      63.986     493.193
  H     -185.527      68.463     492.954
  H     -184.525      67.042     492.784
  H     -185.047      67.558     494.370

 6  7  8  9  10  11  12  13  14  15  26  29  33  34 0
 6-311+G(2d,p)
 ****
 36  38  39  40  41 0
 6-311+G(2d,p)
 ****
 1  2  3  4  5  16  17  18  19  20  21  22  23  24  25 0
 3-21G
 ****
 27  28  30  31  32  35  37  42  43  44  45  46  47 0
 3-21G
 ****
 48  49 0
 3-21G
 ****


