%nproc=1
%NoSave
%Mem=1900MB
#P OB98/GEN NMR

erre ene a

0 1
  C      -24.758     654.961     381.530
  O      -24.774     655.511     380.226
  P      -23.387     655.524     379.408
  C      -23.515     658.070     379.953
  O      -23.085     657.066     379.049
  C      -23.944     659.325     379.196
  O      -22.802     659.948     378.574
  C      -24.924     659.075     378.061
  O      -26.262     658.949     378.524
  C      -24.758     660.335     377.243
  O      -25.529     661.400     377.835
  C      -23.247     660.615     377.366
  N      -20.719     661.932     373.190
  C      -21.196     662.719     374.209
  N      -21.019     664.059     374.073
  N      -21.787     662.244     375.282
  C      -21.899     660.893     375.274
  C      -21.459     659.999     374.319
  C      -20.810     660.536     373.140
  O      -20.415     659.903     372.159
  N      -21.745     658.701     374.674
  C      -22.347     658.812     375.828
  N      -22.500     660.111     376.214
  O      -23.784     654.886     377.985
  O      -22.260     654.769     380.059
  H      -25.065     661.665     378.657
  H      -22.975     654.593     377.512
  H      -20.267     662.349     372.380
  H      -22.697     657.955     376.405
  H      -23.044     661.674     377.481
  H      -25.130     660.225     376.209
  H      -20.631     664.485     373.249
  H      -24.625     658.212     377.458
  H      -21.425     664.659     374.790
  H      -24.350     660.034     379.929
  H      -22.691     658.304     380.655
  H      -24.357     657.671     380.554
  P      -27.156     657.799     377.843
  C      -29.412     659.072     377.752
  O      -28.658     658.057     378.357
  O      -26.718     656.473     378.621
  O      -26.975     657.667     376.365
  H      -26.864     655.677     378.079
  H      -30.476     658.956     378.049
  H      -29.346     659.035     376.655
  H      -29.083     660.070     378.095
  H      -25.739     655.017     381.953
  H      -24.074     655.512     382.141
  H      -24.448     653.938     381.482

 3  4  5  6  7  8  9  10  11  12  23  26  30  31 0
 6-311+G(2d,p)
 ****
 33  35  36  37  38 0
 6-311+G(2d,p)
 ****
 1  2  13  14  15  16  17  18  19  20  21  22  24  25 0
 3-21G
 ****
 27  28  29  32  34  39  40  41  42  43  44  45  46  47  48  49 0
 3-21G
 ****


