%nproc=1
%NoSave
%Mem=1900MB
#P OB98/GEN NMR

erre ene a

0 1
  C      -29.044     306.709    -174.027
  O      -29.527     306.429    -175.331
  P      -30.463     307.478    -176.111
  C      -32.869     308.347    -175.755
  O      -31.869     307.424    -175.345
  C      -33.806     308.647    -174.588
  O      -33.254     309.708    -173.785
  C      -35.196     309.118    -174.999
  O      -35.992     308.032    -175.445
  C      -35.664     309.791    -173.713
  O      -36.121     308.807    -172.772
  C      -34.361     310.439    -173.202
  N      -34.274     311.861    -173.512
  C      -35.173     312.701    -172.848
  O      -35.981     312.251    -172.038
  N      -35.111     314.051    -173.090
  C      -34.249     314.520    -173.938
  N      -34.189     315.872    -174.087
  C      -33.322     313.665    -174.700
  C      -33.385     312.361    -174.438
  O      -30.547     307.266    -177.583
  O      -29.895     308.909    -175.693
  H      -36.623     309.287    -172.084
  H      -29.170     309.235    -176.283
  H      -32.630     314.101    -175.407
  H      -32.724     311.666    -174.941
  H      -34.274     310.308    -172.117
  H      -36.476     310.508    -173.867
  H      -35.125     309.865    -175.800
  H      -33.878     307.746    -173.965
  H      -34.716     316.426    -173.421
  H      -33.444     307.899    -176.570
  H      -33.378     316.323    -174.492
  H      -32.391     309.260    -176.120
  P      -37.231     308.367    -176.405
  C      -39.026     310.185    -175.953
  O      -38.345     309.046    -175.463
  O      -37.828     306.925    -176.753
  O      -36.872     309.141    -177.628
  H      -37.542     306.646    -177.644
  H      -39.893     310.372    -175.313
  H      -39.375     310.020    -176.976
  H      -38.369     311.056    -175.917
  H      -28.444     305.892    -173.686
  H      -29.871     306.846    -173.362
  H      -28.453     307.601    -174.049

 3  4  5  6  7  8  9  10  11  12  13  23  27  28  29  30  32 0
 6-311+G(2d,p)
 ****
 34  35 0
 6-311+G(2d,p)
 ****
 1  2  14  15  16  17  18  19  20  21  22  24  25  26 0
 3-21G
 ****
 31  33  36  37  38  39  40  41  42  43  44  45  46 0
 3-21G
 ****


