%nproc=1
%NoSave
%Mem=1900MB
#P OB98/GEN NMR

erre ene a

0 1
  C        9.198     -12.022      -8.779
  O        8.238     -12.959      -9.221
  H        8.718     -11.065      -8.557
  H        9.666     -12.400      -7.865
  H        9.971     -11.883      -9.541
  P        7.406     -12.574     -10.539
  C        5.309     -11.903      -9.153
  O        6.327     -11.489     -10.052
  C        4.420     -10.711      -8.815
  O        5.216      -9.640      -8.259
  C        3.707     -10.114     -10.023
  O        2.530     -10.824     -10.366
  C        3.381      -8.725      -9.500
  O        2.257      -8.793      -8.606
  C        4.661      -8.379      -8.723
  N        6.295      -3.813     -10.363
  C        5.300      -4.166      -9.520
  N        4.943      -5.402      -9.118
  C        5.739      -6.330      -9.670
  C        6.796      -6.122     -10.542
  C        7.066      -4.789     -10.896
  N        8.058      -4.428     -11.779
  N        7.364      -7.326     -10.913
  C        6.672      -8.239     -10.262
  N        5.659      -7.689      -9.524
  O        6.510     -13.871     -10.816
  O        8.213     -12.156     -11.722
  H        2.369      -9.599      -8.068
  H        6.132     -13.837     -11.715
  H        4.712      -3.346      -9.118
  H        6.857      -9.304     -10.300
  H        4.464      -7.757      -7.843
  H        3.117      -8.025     -10.297
  H        4.381     -10.023     -10.882
  H        3.701     -11.024      -8.048
  H        5.773     -12.287      -8.239
  H        8.077      -3.467     -12.083
  H        8.538      -5.153     -12.292
  H        4.715     -12.697      -9.616
  P        2.030     -10.735     -11.891
  C        0.367      -8.803     -11.388
  O        1.515      -9.232     -12.112
  O        0.678     -11.590     -11.873
  O        3.009     -11.244     -12.896
  H        0.537     -12.036     -12.729
  H        0.147      -7.786     -11.638
  H        0.559      -8.878     -10.338
  H       -0.468      -9.422     -11.643

 6  7  8  9  10  11  12  13  14  15  25  28  32  33  34  35 0
 6-311+G(2d,p)
 ****
 36  39  40 0
 6-311+G(2d,p)
 ****
 1  2  3  4  5  16  17  18  19  20  21  22  23  24 0
 3-21G
 ****
 26  27  29  30  31  37  38  41  42  43  44  45  46  47 0
 3-21G
 ****
 48 0
 3-21G
 ****


