%nproc=1
%NoSave
%Mem=1900MB
#P OB98/GEN NMR

erre ene a

0 1
  C     -179.379     475.772    -202.463
  O     -177.963     475.974    -202.577
  P     -177.022     475.647    -201.313
  C     -175.495     473.700    -202.165
  O     -175.620     475.077    -201.850
  C     -174.015     473.304    -202.230
  O     -173.386     473.890    -203.395
  C     -173.187     473.785    -201.047
  O     -173.405     472.986    -199.892
  C     -171.770     473.670    -201.603
  O     -171.282     472.323    -201.495
  C     -171.982     474.057    -203.082
  N     -171.522     475.409    -203.381
  C     -170.229     475.527    -203.864
  O     -169.458     474.575    -203.987
  N     -169.824     476.801    -204.172
  C     -170.546     477.946    -203.980
  O     -170.124     479.058    -204.257
  C     -171.879     477.759    -203.392
  C     -172.297     476.524    -203.114
  O     -177.708     474.325    -200.717
  O     -176.939     476.718    -200.273
  H     -171.340     472.079    -200.547
  H     -177.540     474.277    -199.760
  H     -168.892     476.910    -204.548
  H     -172.477     478.641    -203.203
  H     -173.281     476.365    -202.679
  H     -171.444     473.352    -203.732
  H     -171.063     474.316    -201.073
  H     -173.408     474.837    -200.838
  H     -173.958     472.210    -202.327
  H     -175.956     473.507    -203.136
  H     -176.020     473.110    -201.408
  P     -173.622     473.770    -198.505
  C     -174.318     471.774    -196.965
  O     -173.318     472.688    -197.362
  O     -175.219     473.942    -198.501
  O     -172.862     475.049    -198.429
  H     -175.669     473.190    -198.925
  H     -174.962     471.494    -197.802
  H     -174.923     472.215    -196.167
  H     -173.833     470.872    -196.577
  H     -179.852     476.035    -203.386
  H     -179.765     476.386    -201.676
  H     -179.576     474.744    -202.242

 3  4  5  6  7  8  9  10  11  12  13  23  28  29  30  31  32 0
 6-311+G(2d,p)
 ****
 33  34 0
 6-311+G(2d,p)
 ****
 1  2  14  15  16  17  18  19  20  21  22  24  25  26 0
 3-21G
 ****
 27  35  36  37  38  39  40  41  42  43  44  45 0
 3-21G
 ****


