%nproc=1
%NoSave
%Mem=1900MB
#P OB98/GEN NMR

erre ene a

0 1
  C      -25.997     -41.542      73.782
  O      -27.122     -41.864      72.977
  P      -27.920     -40.644      72.299
  C      -30.091     -41.598      73.350
  O      -29.252     -40.463      73.173
  C      -30.614     -41.660      74.779
  O      -29.510     -41.677      75.702
  C      -31.471     -40.472      75.191
  O      -32.808     -40.597      74.731
  C      -31.402     -40.573      76.708
  O      -32.354     -41.547      77.173
  C      -29.967     -41.074      76.940
  N      -27.353     -38.997      80.746
  C      -28.200     -40.087      80.745
  N      -28.349     -40.732      81.922
  N      -28.842     -40.507      79.688
  C      -28.565     -39.790      78.574
  C      -27.747     -38.689      78.448
  C      -27.082     -38.204      79.638
  O      -26.372     -37.204      79.712
  N      -27.707     -38.243      77.153
  C      -28.466     -39.091      76.489
  N      -29.034     -40.030      77.313
  O      -28.459     -41.281      70.933
  O      -27.113     -39.415      72.059
  H      -32.294     -41.563      78.147
  H      -28.603     -40.576      70.273
  H      -26.871     -38.727      81.584
  H      -28.631     -39.062      75.422
  H      -29.938     -41.857      77.706
  H      -31.638     -39.630      77.210
  H      -27.783     -40.539      82.733
  H      -31.020     -39.529      74.865
  H      -28.936     -41.557      81.932
  H      -31.172     -42.598      74.899
  H      -29.516     -42.507      73.142
  H      -30.920     -41.539      72.638
  P      -33.225     -39.681      73.478
  C      -34.858     -38.497      75.116
  O      -33.863     -38.359      74.119
  O      -34.479     -40.457      72.860
  O      -32.138     -39.474      72.480
  H      -34.566     -40.251      71.909
  H      -34.658     -39.354      75.765
  H      -35.835     -38.620      74.640
  H      -34.872     -37.592      75.728
  H      -25.565     -42.442      74.167
  H      -26.307     -40.919      74.595
  H      -25.272     -41.023      73.191

 3  4  5  6  7  8  9  10  11  12  23  26  30  31  33  0
 6-311+G(2d,p)
 ****
 35  36  37  38 0
 6-311+G(2d,p)
 ****
 1  2  13  14  15  16  17  18  19  20  21  22  24  25  27  28  29 0
 3-21G
 ****
 32  34  39  40  41  42  43  44  45  46  47  48  49 0
 3-21G
 ****


