%nproc=1
%NoSave
%Mem=1900MB
#P OB98/GEN NMR

erre ene a

0 1
  C      -16.519    -227.222     155.257
  O      -15.151    -227.565     155.542
  P      -14.701    -229.104     155.468
  C      -14.487    -229.530     158.034
  O      -13.848    -229.503     156.767
  C      -13.474    -229.339     159.173
  O      -12.638    -230.527     159.304
  C      -12.530    -228.143     158.989
  O      -12.237    -227.633     160.297
  C      -11.292    -228.792     158.394
  O      -10.122    -228.001     158.537
  C      -11.264    -230.102     159.187
  N      -10.444    -231.153     158.584
  C       -9.661    -231.935     159.426
  O       -9.564    -231.764     160.639
  N       -8.945    -232.933     158.817
  C       -8.903    -233.193     157.478
  O       -8.216    -234.083     156.991
  C       -9.726    -232.317     156.634
  C      -10.445    -231.355     157.216
  O      -13.576    -229.067     154.324
  O      -15.779    -230.071     155.097
  H       -9.422    -228.419     158.004
  H      -13.717    -229.804     153.701
  H       -8.383    -233.519     159.414
  H       -9.724    -232.494     155.567
  H      -11.070    -230.705     156.612
  H      -10.907    -229.906     160.205
  H      -11.452    -228.962     157.324
  H      -12.951    -227.356     158.360
  H      -14.034    -229.244     160.112
  H      -14.989    -230.493     158.162
  H      -15.245    -228.740     158.068
  P      -12.945    -226.264     160.759
  C      -11.473    -224.581     159.402
  O      -11.845    -225.105     160.657
  O      -13.062    -226.523     162.339
  O      -14.261    -225.997     160.107
  H      -12.244    -226.881     162.721
  H      -12.340    -224.450     158.750
  H      -10.754    -225.249     158.923
  H      -11.000    -223.607     159.554
  H      -16.648    -226.164     155.351
  H      -17.164    -227.723     155.949
  H      -16.762    -227.524     154.260

 3  4  5  6  7  8  9  10  11  12  13  23  28  29  30  31  32 0
 6-311+G(2d,p)
 ****
 33  34 0
 6-311+G(2d,p)
 ****
 1  2  14  15  16  17  18  19  20  21  22  24  25  26 0
 3-21G
 ****
 27  35  36  37  38  39  40  41  42  43  44  45 0
 3-21G
 ****


