%nproc=1
%NoSave
%Mem=1900MB
#P OB98/GEN NMR

erre ene a

0 1
  C     -630.453      -0.449    -407.845
  O     -630.102      -0.397    -406.481
  H     -629.832      -1.200    -408.339
  H     -630.278       0.519    -408.324
  H     -631.502      -0.737    -407.959
  P     -630.824       0.677    -405.537
  C     -629.048       1.656    -403.937
  O     -630.049       0.658    -404.133
  C     -627.848       1.062    -403.192
  O     -628.317       0.589    -401.908
  C     -627.215      -0.121    -403.941
  O     -625.816       0.019    -404.136
  C     -627.700      -1.336    -403.148
  O     -626.858      -2.466    -403.231
  C     -627.881      -0.772    -401.733
  N     -628.828      -1.522    -400.916
  C     -628.480      -2.816    -400.556
  O     -627.426      -3.380    -400.857
  N     -629.409      -3.495    -399.801
  C     -630.615      -3.013    -399.387
  O     -631.399      -3.665    -398.710
  C     -630.935      -1.640    -399.817
  C     -630.045      -0.968    -400.548
  O     -632.307       0.554    -405.432
  O     -630.399       2.089    -406.164
  H     -627.269      -3.181    -402.703
  H     -631.142       2.453    -406.685
  H     -629.161      -4.432    -399.531
  H     -631.889      -1.231    -399.515
  H     -630.249       0.045    -400.878
  H     -626.926      -0.755    -401.203
  H     -628.677      -1.632    -403.541
  H     -627.607      -0.194    -404.963
  H     -627.119       1.858    -403.007
  H     -629.493       2.470    -403.359
  H     -628.725       2.044    -404.911
  P     -625.117       0.308    -405.547
  C     -623.059      -1.320    -405.616
  O     -623.553      -0.004    -405.402
  O     -625.491       1.591    -406.202
  O     -625.661      -0.893    -406.473
  H     -625.727      -0.534    -407.385
  H     -621.998      -1.330    -405.475
  H     -623.289      -1.629    -406.614
  H     -623.518      -1.991    -404.920

 6  7  8  9  10  11  12  13  14  15  16  26  31  32  33  34  35 0
 6-311+G(2d,p)
 ****
 36  37 0
 6-311+G(2d,p)
 ****
 1  2  3  4  5  17  18  19  20  21  22  23  24  25 0
 3-21G
 ****
 27  28  29  30  38  39  40  41  42  43  44  45 0
 3-21G
 ****


