%nproc=1
%NoSave
%Mem=1900MB
#P OB98/GEN NMR

erre ene a

0 1
  C      -28.499      50.045      74.785
  O      -27.731      49.301      75.732
  P      -26.975      50.164      76.856
  C      -24.720      51.443      76.838
  O      -25.437      50.295      76.412
  C      -23.331      51.495      76.195
  O      -22.470      50.452      76.745
  C      -23.350      51.303      74.670
  O      -22.303      52.126      74.138
  C      -23.003      49.830      74.531
  O      -22.595      49.472      73.221
  C      -21.948      49.708      75.623
  N      -18.263      46.207      76.033
  C      -18.247      47.490      75.612
  N      -19.276      48.359      75.528
  C      -20.414      47.780      75.946
  C      -20.588      46.483      76.401
  C      -19.440      45.674      76.438
  N      -19.449      44.360      76.845
  N      -21.918      46.250      76.718
  C      -22.534      47.370      76.386
  N      -21.660      48.343      75.996
  O      -26.930      49.179      78.115
  O      -27.649      51.458      77.169
  H      -22.427      48.509      73.177
  H      -27.639      49.400      78.747
  H      -17.278      47.867      75.296
  H      -23.604      47.527      76.409
  H      -20.996      50.171      75.332
  H      -23.885      49.226      74.776
  H      -24.298      51.584      74.204
  H      -22.872      52.460      76.443
  H      -24.611      51.434      77.925
  H      -18.575      43.859      76.832
  H      -20.308      43.922      77.143
  H      -25.303      52.338      76.595
  P      -22.568      52.929      72.775
  C      -22.541      52.266      70.298
  O      -22.194      51.884      71.614
  O      -21.288      53.893      72.749
  O      -23.873      53.641      72.669
  H      -20.467      53.392      72.900
  H      -22.162      51.510      69.604
  H      -22.092      53.231      70.052
  H      -23.628      52.321      70.199
  H      -28.955      49.373      74.089
  H      -27.858      50.722      74.260
  H      -29.259      50.597      75.297

 3  4  5  6  7  8  9  10  11  12  22  25  29  30  31  32 0
 6-311+G(2d,p)
 ****
 33  36  37 0
 6-311+G(2d,p)
 ****
 1  2  13  14  15  16  17  18  19  20  21  23  24  26 0
 3-21G
 ****
 27  28  34  35  38  39  40  41  42  43  44  45  46  47  48 0
 3-21G
 ****


