%nproc=1
%NoSave
%Mem=1900MB
#P OB98/GEN NMR

erre ene a

0 1
  C     -360.566      27.076     151.286
  O     -360.565      28.051     150.233
  P     -359.924      27.769     148.790
  C     -358.005      26.314     147.854
  O     -358.503      27.043     148.972
  C     -356.533      25.931     148.039
  O     -355.677      27.067     147.789
  C     -356.168      25.450     149.439
  O     -356.614      24.122     149.655
  C     -354.651      25.620     149.421
  O     -354.012      24.505     148.783
  C     -354.483      26.900     148.581
  N     -354.219      28.079     149.399
  C     -352.929      28.603     149.333
  O     -352.059      28.051     148.657
  N     -352.638      29.740     150.061
  C     -353.541      30.250     150.836
  N     -353.205      31.378     151.525
  C     -354.892      29.673     151.006
  C     -355.158      28.598     150.260
  O     -359.883      28.969     147.899
  O     -360.845      26.627     148.141
  H     -354.349      24.484     147.859
  H     -360.853      26.737     147.171
  H     -355.602      30.116     151.681
  H     -356.127      28.118     150.314
  H     -353.660      26.783     147.860
  H     -354.229      25.706     150.425
  H     -356.603      26.126     150.188
  H     -356.290      25.159     147.297
  H     -352.278      31.751     151.382
  H     -358.105      26.942     146.960
  H     -353.831      31.854     152.157
  H     -358.615      25.418     147.719
  P     -357.679      23.819     150.814
  C     -357.885      24.692     153.220
  O     -357.004      24.230     152.211
  O     -358.302      22.461     150.784
  O     -358.789      24.965     150.618
  H     -359.661      24.610     150.887
  H     -357.400      24.555     154.192
  H     -358.824      24.136     153.215
  H     -358.085      25.757     153.074
  H     -361.045      27.485     152.151
  H     -359.558      26.812     151.528
  H     -361.096      26.204     150.964

 3  4  5  6  7  8  9  10  11  12  13  23  27  28  29  30  32 0
 6-311+G(2d,p)
 ****
 34  35 0
 6-311+G(2d,p)
 ****
 1  2  14  15  16  17  18  19  20  21  22  24  25  26 0
 3-21G
 ****
 31  33  36  37  38  39  40  41  42  43  44  45  46 0
 3-21G
 ****


