%nproc=1
%NoSave
%Mem=1900MB
#P OB98/GEN NMR

erre ene a

0 1
  C     -231.523    -130.755    -478.174
  O     -232.830    -131.000    -477.691
  H     -231.582    -130.024    -478.983
  H     -231.082    -131.676    -478.562
  H     -230.902    -130.350    -477.371
  P     -232.972    -132.084    -476.516
  C     -233.685    -134.014    -478.074
  O     -234.093    -133.105    -477.051
  C     -234.912    -134.640    -478.744
  O     -235.490    -133.668    -479.651
  C     -234.585    -135.898    -479.551
  O     -235.647    -136.843    -479.400
  C     -234.545    -135.399    -480.985
  O     -234.832    -136.435    -481.929
  C     -235.588    -134.278    -480.957
  N     -236.458    -133.121    -485.844
  C     -236.939    -134.098    -485.050
  N     -236.666    -134.327    -483.743
  C     -235.836    -133.379    -483.265
  C     -235.261    -132.331    -483.955
  C     -235.599    -132.214    -485.321
  N     -235.095    -131.236    -486.145
  N     -234.427    -131.601    -483.127
  C     -234.511    -132.200    -481.952
  N     -235.334    -133.293    -481.991
  O     -233.209    -131.531    -475.152
  O     -231.624    -132.929    -476.689
  H     -234.953    -136.016    -482.806
  H     -231.447    -133.127    -477.630
  H     -237.629    -134.795    -485.519
  H     -233.987    -131.891    -481.050
  H     -236.612    -134.642    -481.094
  H     -233.551    -134.999    -481.211
  H     -233.640    -136.351    -479.256
  H     -235.671    -134.845    -477.978
  H     -233.060    -134.806    -477.651
  H     -235.398    -131.221    -487.104
  H     -234.468    -130.540    -485.763
  H     -233.098    -133.454    -478.803
  P     -235.289    -138.306    -478.852
  C     -236.418    -139.691    -480.720
  O     -236.436    -139.333    -479.341
  O     -234.931    -138.391    -477.406
  O     -234.045    -138.725    -479.777
  H     -233.409    -139.235    -479.233
  H     -237.219    -140.371    -480.922
  H     -235.485    -140.159    -480.955
  H     -236.536    -138.812    -481.318

 6  7  8  9  10  11  12  13  14  15  25  28  32  33  34  35 0
 6-311+G(2d,p)
 ****
 36  39  40 0
 6-311+G(2d,p)
 ****
 1  2  3  4  5  16  17  18  19  20  21  22  23  24 0
 3-21G
 ****
 26  27  29  30  31  37  38  41  42  43  44  45  46  47 0
 3-21G
 ****
 48 0
 3-21G
 ****


