%nproc=1
%NoSave
%Mem=1900MB
#P OB98/GEN NMR

erre ene a

0 1
  C     -888.626     737.244     -82.228
  O     -889.806     736.721     -82.801
  H     -887.906     736.431     -82.080
  H     -888.836     737.697     -81.258
  H     -888.176     737.988     -82.894
  P     -891.026     737.737     -83.005
  C     -892.986     736.252     -82.145
  O     -892.126     737.368     -81.908
  C     -894.006     736.135     -81.020
  O     -893.316     736.056     -79.747
  C     -894.946     737.330     -80.896
  O     -895.986     737.298     -81.851
  C     -895.446     737.164     -79.477
  O     -896.546     736.256     -79.410
  C     -894.206     736.603     -78.746
  N     -893.556     737.613     -77.925
  C     -894.096     737.805     -76.649
  O     -895.046     737.143     -76.223
  N     -893.526     738.769     -75.885
  C     -892.516     739.601     -76.285
  O     -892.076     740.504     -75.580
  C     -891.996     739.384     -77.651
  C     -892.546     738.418     -78.391
  O     -891.676     737.245     -84.380
  O     -890.636     739.180     -83.054
  H     -891.466     737.875     -85.097
  H     -897.356     736.776     -79.628
  H     -893.886     738.908     -74.960
  H     -891.196     740.030     -77.998
  H     -892.186     738.248     -79.406
  H     -894.496     735.764     -78.100
  H     -895.776     738.116     -79.065
  H     -894.366     738.268     -80.968
  H     -894.576     735.206     -81.155
  H     -892.396     735.337     -82.187
  H     -893.486     736.399     -83.110
  P     -896.766     738.677     -82.154
  C     -899.096     737.446     -81.881
  O     -898.216     738.496     -81.466
  O     -897.046     738.526     -83.716
  O     -896.006     739.888     -81.732
  H     -897.076     737.607     -83.991
  H     -900.000     737.492     -81.311
  H     -898.622     736.500     -81.722
  H     -899.323     737.561     -82.920

 6  7  8  9  10  11  12  13  14  15  16  27  31  32  33  34  35 0
 6-311+G(2d,p)
 ****
 36  37 0
 6-311+G(2d,p)
 ****
 1  2  3  4  5  17  18  19  20  21  22  23  24  25 0
 3-21G
 ****
 26  28  29  30  38  39  40  41  42  43  44  45 0
 3-21G
 ****


