%nproc=1
%NoSave
%Mem=1900MB
#P OB98/GEN NMR

erre ene a

0 1
  C      -36.207     255.301     -45.537
  O      -36.804     254.032     -45.352
  H      -36.640     255.767     -46.425
  H      -35.129     255.192     -45.686
  H      -36.400     255.941     -44.672
  P      -36.316     253.187     -44.080
  C      -35.359     251.052     -45.211
  O      -35.080     252.292     -44.576
  C      -34.050     250.346     -45.556
  O      -33.295     251.150     -46.495
  C      -33.126     250.143     -44.362
  O      -33.519     249.046     -43.556
  C      -31.789     249.935     -45.057
  O      -31.629     248.578     -45.488
  C      -31.894     250.869     -46.269
  N      -29.086     254.452     -48.578
  C      -29.751     253.379     -49.057
  N      -30.489     252.478     -48.376
  C      -30.526     252.788     -47.069
  C      -29.901     253.850     -46.438
  C      -29.152     254.712     -47.252
  N      -28.452     255.792     -46.762
  N      -30.139     253.814     -45.076
  C      -30.902     252.753     -44.891
  N      -31.164     252.106     -46.066
  O      -37.498     252.126     -43.876
  O      -36.069     253.987     -42.845
  H      -30.821     248.558     -46.036
  H      -38.087     252.428     -43.159
  H      -29.674     253.215     -50.129
  H      -31.278     252.415     -43.935
  H      -31.505     250.407     -47.182
  H      -30.963     250.171     -44.390
  H      -33.073     251.061     -43.765
  H      -34.284     249.388     -46.037
  H      -35.924     251.233     -46.132
  H      -35.962     250.434     -44.538
  H      -27.880     256.327     -47.393
  H      -28.402     255.927     -45.760
  P      -32.693     248.782     -42.207
  C      -31.585     246.479     -42.730
  O      -31.424     247.883     -42.597
  O      -33.627     247.780     -41.378
  O      -32.367     250.011     -41.429
  H      -33.554     247.973     -40.423
  H      -30.647     246.036     -42.992
  H      -32.303     246.273     -43.496
  H      -31.926     246.070     -41.802

 6  7  8  9  10  11  12  13  14  15  25  28  32  33  34  35 0
 6-311+G(2d,p)
 ****
 36  37  40 0
 6-311+G(2d,p)
 ****
 1  2  3  4  5  16  17  18  19  20  21  22  23  24 0
 3-21G
 ****
 26  27  29  30  31  38  39 41  42  43  44  45  46  47  48 0
 3-21G
 ****


