%nproc=1
%NoSave
%Mem=1900MB
#P OB98/GEN NMR

erre ene a

0 1
  C      -87.368     -86.301      94.710
  O      -86.818     -85.320      95.572
  P      -87.288     -83.795      95.487
  C      -84.992     -83.089      94.427
  O      -86.400     -83.056      94.387
  C      -84.444     -82.612      93.077
  O      -85.046     -83.360      92.002
  C      -84.739     -81.131      92.843
  O      -83.640     -80.333      93.248
  C      -85.009     -81.078      91.351
  O      -83.772     -81.037      90.617
  C      -85.727     -82.430      91.117
  N      -87.173     -82.507      91.398
  C      -87.946     -83.477      90.766
  O      -87.491     -84.313      89.992
  N      -89.291     -83.437      91.038
  C      -89.904     -82.570      91.895
  O      -91.116     -82.385      91.947
  C      -89.008     -81.763      92.730
  C      -87.709     -81.751      92.431
  O      -86.759     -83.177      96.864
  O      -88.755     -83.584      95.306
  H      -83.994     -80.839      89.691
  H      -87.478     -83.135      97.522
  H      -89.875     -84.045      90.475
  H      -89.441     -81.164      93.519
  H      -87.029     -81.131      93.009
  H      -85.580     -82.778      90.089
  H      -85.555     -80.176      91.082
  H      -85.654     -80.839      93.376
  H      -83.362     -82.792      93.048
  H      -84.647     -84.107      94.641
  H      -84.624     -82.448      95.234
  P      -83.777     -78.738      93.245
  C      -81.952     -78.563      91.454
  O      -83.296     -78.276      91.785
  O      -83.126     -78.032      94.388
  O      -85.363     -78.507      93.229
  H      -85.682     -78.332      94.138
  H      -81.804     -78.366      90.390
  H      -81.722     -79.613      91.655
  H      -81.283     -77.920      92.029
  H      -86.926     -87.252      94.923
  H      -87.168     -86.035      93.693
  H      -88.426     -86.357      94.863

 3  4  5  6  7  8  9  10  11  12  13  23  28  29  30  31  32 0
 6-311+G(2d,p)
 ****
 33  34 0
 6-311+G(2d,p)
 ****
 1  2  14  15  16  17  18  19  20  21  22  24  25  26  27 0
 3-21G
 ****
 35  36  37  38  39  40  41  42  43  44  45 0
 3-21G
 ****


