%nproc=1
%NoSave
%Mem=1900MB
#P OB98/GEN NMR

erre ene a

0 1
  C      -60.826    -141.348     866.710
  O      -61.313    -140.390     865.792
  H      -60.034    -141.929     866.224
  H      -61.628    -142.034     867.007
  H      -60.410    -140.857     867.590
  P      -62.489    -139.414     866.267
  C      -64.918    -139.758     867.089
  O      -63.780    -140.349     866.470
  C      -66.130    -139.882     866.174
  O      -66.517    -141.261     866.027
  C      -67.362    -139.133     866.685
  O      -67.276    -137.753     866.365
  C      -68.459    -139.855     865.908
  O      -68.474    -139.390     864.546
  C      -67.967    -141.315     865.970
  N      -72.052    -143.254     868.263
  C      -71.958    -142.480     867.123
  N      -73.128    -142.146     866.529
  N      -70.829    -142.064     866.615
  C      -69.752    -142.420     867.357
  C      -69.718    -143.163     868.517
  C      -70.969    -143.669     869.035
  O      -71.095    -144.373     870.029
  N      -68.442    -143.260     869.007
  C      -67.701    -142.610     868.134
  N      -68.445    -142.063     867.116
  O      -62.745    -138.212     865.412
  O      -62.086    -139.016     867.762
  H      -68.643    -138.429     864.578
  H      -61.571    -138.188     867.782
  H      -72.952    -143.530     868.616
  H      -66.623    -142.508     868.184
  H      -68.239    -141.878     865.077
  H      -69.451    -139.692     866.320
  H      -74.003    -142.199     867.026
  H      -67.527    -139.302     867.751
  H      -73.082    -141.543     865.726
  H      -65.841    -139.520     865.177
  H      -64.677    -138.702     867.279
  H      -65.123    -140.249     868.044
  P      -68.039    -136.651     867.254
  C      -70.468    -136.374     868.085
  O      -69.551    -137.170     867.344
  O      -67.887    -135.253     866.775
  O      -67.502    -136.885     868.739
  H      -66.679    -136.374     868.948
  H      -71.435    -136.832     868.065
  H      -70.526    -135.398     867.650
  H      -70.133    -136.293     869.098

 6  7  8  9  10  11  12  13  14  15  26  29  33  34 0
 6-311+G(2d,p)
 ****
 36  38  39  40  41 0
 6-311+G(2d,p)
 ****
 1  2  3  4  5  16  17  18  19  20  21  22  23  24  25 0
 3-21G
 ****
 27  28  30  31  32  35  37  42  43  44  45  46  47 0
 3-21G
 ****
 48  49 0
 3-21G
 ****


