%nproc=1
%NoSave
%Mem=1900MB
#P OB98/GEN NMR

erre ene a

0 1
  C     -482.524      72.025     436.448
  O     -481.957      71.355     437.579
  P     -480.954      72.157     438.536
  C     -482.220      71.543     440.700
  O     -480.985      71.499     440.001
  C     -482.083      70.964     442.112
  O     -482.023      69.510     442.045
  C     -480.816      71.445     442.840
  O     -481.081      71.958     444.146
  C     -479.883      70.245     442.779
  O     -478.900      70.257     443.797
  C     -480.861      69.064     442.764
  N     -480.262      67.858     442.173
  C     -480.068      66.779     443.015
  O     -480.301      66.803     444.222
  N     -479.529      65.655     442.438
  C     -479.105      65.546     441.148
  O     -478.579      64.539     440.690
  C     -479.270      66.755     440.314
  C     -479.836      67.835     440.861
  O     -481.081      73.644     438.516
  O     -479.506      71.707     437.995
  H     -479.360      70.280     444.671
  H     -478.919      72.488     438.032
  H     -479.398      64.852     443.034
  H     -478.924      66.714     439.294
  H     -479.965      68.737     440.276
  H     -481.163      68.797     443.783
  H     -479.351      70.273     441.820
  H     -480.354      72.291     442.315
  H     -482.979      71.244     442.676
  H     -482.971      70.964     440.155
  H     -482.586      72.572     440.722
  P     -481.616      73.432     444.454
  C     -483.310      72.683     446.268
  O     -482.173      73.466     445.951
  O     -482.540      74.016     443.428
  O     -480.279      74.294     444.542
  H     -480.415      75.157     444.112
  H     -483.778      73.079     447.171
  H     -483.000      71.646     446.459
  H     -484.051      72.694     445.452
  H     -483.166      71.352     435.919
  H     -481.740      72.354     435.798
  H     -483.090      72.870     436.781

 3  4  5  6  7  8  9  10  11  12  13  23  28  29  30  31  32 0
 6-311+G(2d,p)
 ****
 33  34 0
 6-311+G(2d,p)
 ****
 1  2  14  15  16  17  18  19  20  21  22  24  25  26  27 0
 3-21G
 ****
 35  36  37  38  39  40  41  42  43  44  45 0
 3-21G
 ****


