%nproc=1
%NoSave
%Mem=1900MB
#P OB98/GEN NMR

erre ene a

0 1
  C      894.012    -698.633     934.221
  O      894.042    -698.345     932.829
  P      893.433    -696.929     932.363
  C      891.232    -697.785     931.210
  O      891.850    -697.123     932.327
  C      889.767    -697.401     931.127
  O      889.078    -697.725     932.378
  C      889.508    -695.915     930.911
  O      889.791    -695.531     929.583
  C      888.040    -695.803     931.325
  O      887.196    -696.230     930.242
  C      887.959    -696.812     932.499
  N      887.941    -696.177     933.800
  C      886.770    -695.462     934.101
  O      885.840    -695.345     933.329
  N      886.753    -694.838     935.330
  C      887.759    -694.870     936.256
  O      887.674    -694.313     937.345
  C      888.979    -695.593     935.870
  C      889.023    -696.211     934.678
  O      893.877    -696.903     930.803
  O      893.946    -695.782     933.175
  H      893.850    -697.788     930.406
  H      887.546    -695.814     929.430
  H      885.916    -694.357     935.576
  H      889.804    -695.594     936.553
  H      889.917    -696.737     934.360
  H      887.056    -697.426     932.394
  H      887.752    -694.777     931.582
  H      890.132    -695.334     931.616
  H      889.287    -697.981     930.316
  H      891.313    -698.862     931.333
  H      891.763    -697.501     930.297
  P      891.046    -694.565     929.348
  C      889.542    -692.676     928.304
  O      890.481    -693.063     929.300
  O      891.412    -694.888     927.815
  O      892.170    -694.783     930.320
  H      890.645    -694.931     927.238
  H      889.042    -691.786     928.625
  H      888.809    -693.465     928.106
  H      890.080    -692.448     927.373
  H      894.443    -699.597     934.395
  H      892.999    -698.629     934.564
  H      894.571    -697.891     934.751

 3  4  5  6  7  8  9  10  11  12  13  24  28  29  30  31  32 0
 6-311+G(2d,p)
 ****
 33  34 0
 6-311+G(2d,p)
 ****
 1  2  14  15  16  17  18  19  20  21  22  23  25  26  27 0
 3-21G
 ****
 35  36  37  38  39  40  41  42  43  44  45 0
 3-21G
 ****


