%nproc=1
%NoSave
%Mem=1900MB
#P OB98/GEN NMR

erre ene a

0 1
  C     -186.542      23.279     379.431
  O     -185.183      23.694     379.590
  P     -184.888      25.265     379.459
  C     -183.830      25.028     377.100
  O     -184.835      25.635     377.901
  C     -183.859      25.615     375.689
  O     -183.782      27.058     375.708
  C     -182.690      25.166     374.821
  O     -182.864      23.830     374.382
  C     -182.736      26.211     373.713
  O     -183.759      25.885     372.757
  C     -183.134      27.479     374.485
  N     -180.238      31.377     372.869
  C     -181.300      30.749     372.315
  N     -182.013      29.717     372.808
  C     -181.544      29.345     374.010
  C     -180.475      29.891     374.700
  C     -179.804      30.957     374.080
  N     -178.712      31.587     374.638
  N     -180.290      29.241     375.905
  C     -181.214      28.303     375.926
  N     -182.004      28.332     374.809
  O     -183.366      25.394     379.935
  O     -185.798      26.112     380.283
  H     -183.929      26.691     372.228
  H     -183.325      25.825     380.812
  H     -181.613      31.125     371.343
  H     -181.352      27.581     376.724
  H     -183.851      28.095     373.930
  H     -181.791      26.297     373.164
  H     -181.747      25.255     375.382
  H     -184.806      25.322     375.216
  H     -183.985      23.948     377.053
  H     -178.242      32.288     374.093
  H     -178.329      31.224     375.499
  H     -182.858      25.189     377.574
  P     -182.227      22.660     375.276
  C     -180.040      22.529     373.934
  O     -180.642      22.911     375.155
  O     -182.448      21.383     374.343
  O     -182.763      22.560     376.662
  H     -182.203      21.565     373.418
  H     -178.979      22.787     373.972
  H     -180.503      23.061     373.100
  H     -180.137      21.450     373.790
  H     -186.606      22.216     379.540
  H     -186.889      23.559     378.458
  H     -187.148      23.751     380.176

 3  4  5  6  7  8  9  10  11  12  22  25  29  30  31  32 0
 6-311+G(2d,p)
 ****
 33  36  37 0
 6-311+G(2d,p)
 ****
 1  2  13  14  15  16  17  18  19  20  21  23  24  26 0
 3-21G
 ****
 27  28  34  35  38  39  40  41  42  43  44  45  46  47  48 0
 3-21G
 ****


