%nproc=1
%NoSave
%Mem=1900MB
#P OB98/GEN NMR

erre ene a

0 1
  C     -381.306    -898.540    -230.403
  O     -382.160    -897.860    -231.328
  P     -383.308    -898.620    -232.145
  C     -385.580    -897.490    -231.722
  O     -384.683    -898.530    -231.336
  C     -385.738    -896.420    -230.618
  O     -384.458    -895.870    -230.262
  C     -386.635    -895.260    -231.000
  O     -387.997    -895.600    -230.900
  C     -386.159    -894.190    -229.994
  O     -386.803    -894.390    -228.721
  C     -384.658    -894.480    -229.906
  N     -382.050    -890.100    -230.135
  C     -382.715    -890.700    -229.125
  N     -383.399    -891.860    -229.145
  C     -383.318    -892.440    -230.352
  C     -382.667    -891.950    -231.490
  C     -382.018    -890.700    -231.345
  N     -381.340    -890.080    -232.385
  N     -382.839    -892.790    -232.554
  C     -383.545    -893.800    -232.089
  N     -383.849    -893.620    -230.759
  O     -382.946    -900.000    -232.587
  O     -383.571    -897.680    -233.434
  H     -386.636    -895.310    -228.440
  H     -383.891    -898.230    -234.178
  H     -382.703    -890.170    -228.184
  H     -383.844    -894.670    -232.652
  H     -384.289    -894.370    -228.883
  H     -386.402    -893.180    -230.315
  H     -386.399    -894.910    -232.001
  H     -386.142    -896.950    -229.731
  H     -386.559    -897.930    -231.943
  H     -380.935    -889.190    -232.211
  H     -381.356    -890.520    -233.303
  H     -385.186    -897.020    -232.645
  P     -388.783    -896.160    -232.190
  C     -389.528    -898.360    -231.084
  O     -388.750    -897.770    -232.102
  O     -388.353    -895.580    -233.496
  O     -390.306    -895.840    -231.855
  H     -390.806    -895.700    -232.704
  H     -388.984    -898.300    -230.132
  H     -389.692    -899.410    -231.322
  H     -390.493    -897.860    -230.985
  H     -380.617    -897.842    -229.974
  H     -380.764    -899.307    -230.916
  H     -381.898    -898.979    -229.627

 3  4  5  6  7  8  9  10  11  12  22  25  29  30  31  32 0
 6-311+G(2d,p)
 ****
 33  36  37 0
 6-311+G(2d,p)
 ****
 1  2  13  14  15  16  17  18  19  20  21  23  24  26 0
 3-21G
 ****
 27  28  34  35  38  39  40  41  42  43  44  45  46  47  48 0
 3-21G
 ****


