%nproc=1
%NoSave
%Mem=1900MB
#P OB98/GEN NMR

erre ene a

0 1
  C      155.661     670.137      51.123
  O      155.363     669.090      50.218
  H      156.262     669.731      51.942
  H      154.735     670.544      51.534
  H      156.229     670.926      50.625
  P      154.662     669.510      48.838
  C      156.772     670.145      47.468
  O      155.618     670.603      48.156
  C      156.602     670.340      45.963
  O      156.206     671.700      45.673
  C      157.868     670.084      45.150
  O      158.057     668.701      44.889
  C      157.535     670.844      43.876
  O      156.620     670.072      43.072
  C      156.840     672.096      44.426
  N      158.916     676.289      42.479
  C      158.042     675.385      41.907
  N      157.678     675.624      40.629
  N      157.573     674.333      42.527
  C      158.033     674.213      43.796
  C      158.897     675.047      44.472
  C      159.401     676.207      43.775
  O      160.160     677.055      44.242
  N      159.123     674.604      45.747
  C      158.414     673.494      45.836
  N      157.740     673.210      44.678
  O      153.398     670.373      49.312
  O      154.250     668.379      47.958
  H      155.880     669.821      43.651
  H      152.654     670.204      48.700
  H      159.257     677.077      41.949
  H      158.353     672.868      46.716
  H      156.054     672.463      43.757
  H      158.415     671.037      43.258
  H      158.041     676.386      40.079
  H      158.747     670.535      45.624
  H      157.014     674.993      40.199
  H      155.788     669.685      45.630
  H      156.919     669.080      47.677
  H      157.644     670.703      47.822
  P      159.502     668.077      45.201
  C      159.005     667.188      47.590
  O      159.674     668.161      46.794
  O      160.506     669.205      44.661
  O      159.763     666.747      44.579
  H      161.375     668.809      44.459
  H      159.211     667.370      48.624
  H      159.350     666.211      47.324
  H      157.951     667.252      47.420

 6  7  8  9  10  11  12  13  14  15  26  29  33  34 0
 6-311+G(2d,p)
 ****
 36  38  39  40  41 0
 6-311+G(2d,p)
 ****
 1  2  3  4  5  16  17  18  19  20  21  22  23  24  25 0
 3-21G
 ****
 27  28  30  31  32  35  37  42  43  44  45  46  47 0
 3-21G
 ****
 48  49 0
 3-21G
 ****


