%nproc=1
%NoSave
%Mem=1900MB
#P OB98/GEN NMR

erre ene a

0 1
  C      705.772     -43.553    -893.180
  O      705.452     -44.862    -892.720
  P      706.558     -46.008    -892.920
  C      707.867     -46.929    -894.970
  O      706.771     -46.139    -894.500
  C      708.161     -46.620    -896.430
  O      708.574     -45.242    -896.560
  C      709.298     -47.437    -897.030
  O      708.870     -48.723    -897.450
  C      709.663     -46.584    -898.230
  O      708.729     -46.807    -899.300
  C      709.511     -45.168    -897.670
  N      712.784     -41.274    -898.180
  C      711.658     -41.596    -898.860
  N      710.863     -42.651    -898.670
  C      711.327     -43.453    -897.680
  C      712.473     -43.258    -896.950
  C      713.229     -42.114    -897.220
  N      714.366     -41.762    -896.510
  N      712.637     -44.288    -896.030
  C      711.584     -45.070    -896.220
  N      710.768     -44.605    -897.200
  O      705.753     -47.348    -892.540
  O      707.793     -45.832    -892.100
  H      708.852     -47.729    -899.590
  H      706.378     -48.045    -892.270
  H      711.367     -40.904    -899.640
  H      711.392     -45.983    -895.660
  H      709.096     -44.477    -898.410
  H      710.666     -46.819    -898.620
  H      710.156     -47.496    -896.340
  H      707.247     -46.757    -897.010
  H      707.588     -47.984    -894.870
  H      714.731     -40.840    -896.630
  H      714.559     -42.281    -895.650
  H      708.741     -46.742    -894.330
  P      710.005     -49.840    -897.660
  C      712.245     -49.737    -898.980
  O      710.898     -49.300    -898.880
  O      709.193     -51.076    -898.300
  O      710.732     -50.213    -896.420
  H      709.661     -51.908    -898.110
  H      712.609     -49.532    -900.000
  H      712.339     -50.799    -898.770
  H      712.862     -49.172    -898.270
  H      704.951     -42.895    -892.984
  H      705.963     -43.582    -894.232
  H      706.643     -43.198    -892.669

 3  4  5  6  7  8  9  10  11  12  22  25  29  30  31  32 0
 6-311+G(2d,p)
 ****
 33  36  37 0
 6-311+G(2d,p)
 ****
 1  2  13  14  15  16  17  18  19  20  21  23  24  26 0
 3-21G
 ****
 27  28  34  35  38  39  40  41  42  43  44  45  46  47  48 0
 3-21G
 ****


