%nproc=1
%NoSave
%Mem=1900MB
#P OB98/GEN NMR

erre ene a

0 1
  C      -52.646    -175.119     136.202
  O      -53.198    -175.888     135.147
  H      -52.398    -174.123     135.814
  H      -51.740    -175.593     136.578
  H      -53.380    -175.005     137.008
  P      -53.637    -177.388     135.502
  C      -51.473    -178.514     136.412
  O      -52.693    -177.855     136.730
  C      -50.452    -178.318     137.528
  O      -50.985    -178.897     138.760
  C      -49.095    -178.979     137.272
  O      -48.055    -178.136     137.773
  C      -49.146    -180.248     138.101
  O      -47.865    -180.751     138.420
  C      -49.959    -179.751     139.302
  N      -48.997    -183.059     142.988
  C      -48.226    -182.025     142.481
  N      -47.014    -181.847     143.032
  N      -48.615    -181.228     141.506
  C      -49.869    -181.508     141.063
  C      -50.726    -182.503     141.473
  C      -50.284    -183.388     142.538
  O      -50.913    -184.318     143.018
  N      -51.899    -182.476     140.747
  C      -51.753    -181.464     139.897
  N      -50.521    -180.855     140.058
  O      -53.071    -178.239     134.267
  O      -55.095    -177.600     135.722
  H      -47.969    -181.447     139.104
  H      -53.629    -179.023     134.101
  H      -48.638    -183.632     143.723
  H      -52.464    -181.143     139.162
  H      -49.354    -179.172     140.008
  H      -49.703    -181.026     137.559
  H      -46.645    -182.395     143.808
  H      -48.916    -179.181     136.203
  H      -46.421    -181.088     142.676
  H      -50.341    -177.243     137.718
  H      -51.077    -178.102     135.478
  H      -51.662    -179.587     136.270
  P      -47.347    -177.134     136.748
  C      -45.152    -178.254     135.907
  O      -46.518    -178.001     135.664
  O      -46.181    -176.459     137.650
  O      -48.252    -176.087     136.185
  H      -46.406    -175.546     137.852
  H      -44.749    -178.835     135.104
  H      -45.047    -178.793     136.825
  H      -44.624    -177.326     135.976

 6  7  8  9  10  11  12  13  14  15  26  29  33  34 0
 6-311+G(2d,p)
 ****
 36  38  39  40  41 0
 6-311+G(2d,p)
 ****
 1  2  3  4  5  16  17  18  19  20  21  22  23  24  25 0
 3-21G
 ****
 27  28  30  31  32  35  37  42  43  44  45  46  47 0
 3-21G
 ****
 48  49 0
 3-21G
 ****


