%nproc=1
%NoSave
%Mem=1900MB
#P OB98/GEN NMR

erre ene a

0 1
  C     -368.727    -140.892     152.756
  O     -369.469    -141.348     151.637
  P     -369.780    -142.923     151.542
  C     -371.841    -142.657     153.108
  O     -370.597    -143.307     152.868
  C     -372.997    -143.553     152.668
  O     -373.015    -144.780     153.429
  C     -374.373    -142.936     152.865
  O     -374.721    -142.037     151.821
  C     -375.258    -144.170     152.815
  O     -375.481    -144.563     151.448
  C     -374.393    -145.215     153.537
  N     -377.365    -147.689     156.794
  C     -377.137    -147.928     155.451
  N     -377.845    -148.933     154.892
  N     -376.288    -147.248     154.732
  C     -375.653    -146.270     155.425
  C     -375.800    -145.941     156.759
  C     -376.754    -146.693     157.540
  O     -377.040    -146.496     158.717
  N     -374.985    -144.897     157.103
  C     -374.348    -144.595     155.994
  N     -374.752    -145.364     154.936
  O     -368.348    -143.598     151.784
  O     -370.395    -143.359     150.254
  H     -376.050    -143.871     151.052
  H     -368.361    -144.527     151.482
  H     -378.038    -148.243     157.308
  H     -373.600    -143.814     155.902
  H     -374.457    -146.199     153.061
  H     -376.240    -144.008     153.264
  H     -378.559    -149.451     155.377
  H     -374.458    -142.465     153.855
  H     -377.740    -149.087     153.893
  H     -372.840    -143.816     151.613
  H     -371.871    -141.721     152.550
  H     -371.924    -142.426     154.177
  P     -375.908    -140.996     152.131
  C     -374.491    -138.822     152.071
  O     -375.207    -139.751     152.857
  O     -376.722    -141.720     153.303
  O     -376.768    -140.678     150.952
  H     -377.655    -141.427     153.297
  H     -374.316    -137.918     152.668
  H     -375.059    -138.539     151.179
  H     -373.525    -139.241     151.779
  H     -368.596    -139.832     152.689
  H     -367.770    -141.370     152.768
  H     -369.256    -141.130     153.655

 3  4  5  6  7  8  9  10  11  12  23  26  30  31 0
 6-311+G(2d,p)
 ****
 33  35  36  37  38 0
 6-311+G(2d,p)
 ****
 1  2  13  14  15  16  17  18  19  20  21  22  24  25 0
 3-21G
 ****
 27  28  29  32  34  39  40  41  42  43  44  45  46  47  48  49 0
 3-21G
 ****


