%nproc=1
%NoSave
%Mem=1900MB
#P OB98/GEN NMR

erre ene a

0 1
  C      157.070      80.859     112.963
  O      158.030      81.821     112.576
  P      157.776      83.357     112.965
  C      157.031      83.998     110.524
  O      157.924      84.206     111.609
  C      157.719      84.346     109.199
  O      158.023      85.771     109.187
  C      159.022      83.589     108.939
  O      159.103      83.347     107.527
  C      160.086      84.590     109.365
  O      161.354      84.331     108.778
  C      159.433      85.902     108.915
  N      159.980      87.085     109.586
  C      160.945      87.832     108.912
  O      161.386      87.539     107.799
  N      161.426      88.929     109.586
  C      161.097      89.299     110.859
  O      161.570      90.279     111.420
  C      160.103      88.443     111.530
  C      159.597      87.406     110.879
  O      159.113      83.694     113.779
  O      156.507      83.588     113.715
  H      159.902      83.247     113.425
  H      161.778      83.605     109.279
  H      162.100      89.503     109.106
  H      159.828      88.701     112.555
  H      158.871      86.755     111.355
  H      159.538      86.019     107.827
  H      160.200      84.559     110.457
  H      159.077      82.638     109.485
  H      156.999      84.163     108.386
  H      156.151      84.640     110.655
  H      156.690      82.956     110.533
  P      160.049      82.136     107.021
  C      161.923      83.644     105.977
  O      160.897      82.689     105.776
  O      158.954      81.206     106.312
  O      160.806      81.432     108.100
  H      158.363      81.687     105.717
  H      162.582      83.631     105.098
  H      162.518      83.417     106.862
  H      161.485      84.638     106.068
  H      157.382      79.891     112.632
  H      156.126      81.100     112.521
  H      156.975      80.858     114.029

 3  4  5  6  7  8  9  10  11  12  13  24  28  29  30  31  32 0
 6-311+G(2d,p)
 ****
 33  34 0
 6-311+G(2d,p)
 ****
 1  2  14  15  16  17  18  19  20  21  22  23  25  26  27 0
 3-21G
 ****
 35  36  37  38  39  40  41  42  43  44  45 0
 3-21G
 ****


