%nproc=1
%NoSave
%Mem=1900MB
#P OB98/GEN NMR

erre ene a

0 1
  C       12.875     407.271    -312.441
  O       11.449     407.268    -312.452
  P       10.718     405.871    -312.160
  C        9.575     405.704    -314.518
  O        9.427     405.790    -313.110
  C        8.203     405.648    -315.214
  O        7.605     404.348    -314.951
  C        7.178     406.664    -314.714
  O        6.145     406.789    -315.695
  C        6.623     405.974    -313.490
  O        5.380     406.535    -313.092
  C        6.583     404.497    -313.928
  N        6.838     403.546    -312.823
  C        5.747     403.042    -312.115
  O        4.581     403.358    -312.345
  N        6.040     402.195    -311.079
  C        7.280     401.768    -310.715
  O        7.499     401.081    -309.724
  C        8.382     402.213    -311.583
  C        8.115     403.066    -312.573
  O       10.106     406.065    -310.690
  O       11.614     404.687    -312.240
  H        5.534     407.496    -312.927
  H       10.634     405.556    -310.043
  H        5.263     401.886    -310.511
  H        9.374     401.834    -311.374
  H        8.927     403.420    -313.211
  H        5.613     404.239    -314.364
  H        7.315     406.099    -312.655
  H        7.589     407.646    -314.489
  H        8.341     405.730    -316.294
  H       10.168     404.829    -314.777
  H       10.127     406.578    -314.878
  P        6.086     408.134    -316.571
  C        3.527     408.267    -316.389
  O        4.643     408.169    -317.256
  O        7.249     408.374    -317.480
  O        5.971     409.282    -315.447
  H        6.225     410.140    -315.830
  H        2.719     408.784    -316.902
  H        3.776     408.813    -315.475
  H        3.193     407.256    -316.123
  H       13.231     408.258    -312.649
  H       13.239     406.596    -313.187
  H       13.225     406.961    -311.479

 3  4  5  6  7  8  9  10  11  12  13  23  28  29  30  31  32 0
 6-311+G(2d,p)
 ****
 33  34 0
 6-311+G(2d,p)
 ****
 1  2  14  15  16  17  18  19  20  21  22  24  25  26  27 0
 3-21G
 ****
 35  36  37  38  39  40  41  42  43  44  45 0
 3-21G
 ****


