%nproc=1
%NoSave
%Mem=1900MB
#P OB98/GEN NMR

erre ene a

0 1
  C      -23.890     -81.649      61.009
  O      -24.192     -81.087      62.271
  H      -22.916     -82.141      61.067
  H      -23.845     -80.867      60.246
  H      -24.646     -82.390      60.736
  P      -25.546     -80.226      62.361
  C      -24.347     -77.972      61.820
  O      -25.258     -78.974      61.395
  C      -24.335     -76.827      60.813
  O      -24.045     -77.318      59.486
  C      -25.665     -76.090      60.692
  O      -25.885     -75.169      61.747
  C      -25.467     -75.389      59.360
  O      -24.592     -74.259      59.536
  C      -24.779     -76.501      58.535
  N      -25.725     -77.321      57.775
  C      -25.988     -76.918      56.460
  O      -25.449     -75.917      55.992
  N      -26.886     -77.644      55.714
  C      -27.463     -78.685      56.229
  N      -28.353     -79.358      55.449
  C      -27.202     -79.153      57.602
  C      -26.334     -78.434      58.310
  O      -25.476     -79.564      63.817
  O      -26.812     -80.962      62.079
  H      -24.323     -73.968      58.645
  H      -26.208     -78.910      63.923
  H      -27.715     -80.021      57.991
  H      -26.095     -78.716      59.329
  H      -24.047     -76.075      57.839
  H      -26.398     -75.012      58.931
  H      -26.505     -76.787      60.599
  H      -23.523     -76.140      61.091
  H      -28.557     -78.978      54.535
  H      -23.351     -78.419      61.896
  H      -28.978     -80.063      55.820
  H      -24.642     -77.588      62.802
  P      -27.401     -74.736      62.053
  C      -26.905     -72.506      60.818
  O      -27.791     -73.603      60.986
  O      -27.273     -73.921      63.423
  O      -28.371     -75.871      62.164
  H      -28.026     -74.105      64.016
  H      -27.298     -71.840      60.079
  H      -25.948     -72.866      60.502
  H      -26.801     -71.986      61.747

 6  7  8  9  10  11  12  13  14  15  16  26  30  31  32  33  35 0
 6-311+G(2d,p)
 ****
 37  38 0
 6-311+G(2d,p)
 ****
 1  2  3  4  5  17  18  19  20  21  22  23  24  25 0
 3-21G
 ****
 27  28  29  34  36  39  40  41  42  43  44  45  46 0
 3-21G
 ****


