%nproc=1
%NoSave
%Mem=1900MB
#P OB98/GEN NMR

erre ene a

0 1
  C     -887.670     164.033    -893.498
  O     -888.390     162.961    -892.918
  H     -886.800     163.629    -894.018
  H     -887.320     164.721    -892.708
  H     -888.290     164.574    -894.208
  P     -889.710     163.346    -892.098
  C     -891.190     162.063    -893.798
  O     -890.940     163.288    -893.148
  C     -892.540     162.093    -894.518
  O     -893.610     161.957    -893.508
  C     -892.800     163.404    -895.278
  O     -893.510     163.101    -896.488
  C     -893.740     164.183    -894.348
  O     -894.500     165.150    -895.058
  C     -894.540     163.021    -893.758
  N     -898.630     165.357    -891.938
  C     -898.280     165.085    -893.228
  N     -899.120     165.465    -894.228
  N     -897.170     164.462    -893.558
  C     -896.420     164.092    -892.478
  C     -896.650     164.317    -891.158
  C     -897.880     165.026    -890.808
  O     -898.270     165.333    -889.658
  N     -895.660     163.825    -890.358
  C     -894.790     163.290    -891.208
  N     -895.220     163.435    -892.508
  O     -889.540     164.907    -891.808
  O     -889.930     162.554    -890.838
  H     -894.890     164.688    -895.828
  H     -889.970     165.161    -890.968
  H     -899.490     165.854    -891.748
  H     -893.840     162.803    -890.958
  H     -895.330     162.660    -894.438
  H     -893.140     164.697    -893.558
  H     -900.000     165.920    -894.048
  H     -891.890     163.961    -895.508
  H     -898.860     165.252    -895.188
  H     -892.640     161.232    -895.178
  H     -891.190     161.255    -893.038
  H     -890.400     161.848    -894.538
  P     -892.960     163.763    -897.858
  C     -892.210     161.637    -899.158
  O     -891.840     162.813    -898.468
  O     -892.160     165.047    -897.328
  O     -894.040     164.166    -898.808
  H     -892.650     165.854    -897.568
  H     -891.330     161.129    -899.494
  H     -892.818     161.894    -900.000
  H     -892.762     160.997    -898.501

 6  7  8  9  10  11  12  13  14  15  26  29  33  34 0
 6-311+G(2d,p)
 ****
 36  38  39  40  41 0
 6-311+G(2d,p)
 ****
 1  2  3  4  5  16  17  18  19  20  21  22  23  24  25 0
 3-21G
 ****
 27  28  30  31  32  35  37  42  43  44  45  46  47 0
 3-21G
 ****
 48  49 0
 3-21G
 ****


