%nproc=1
%NoSave
%Mem=1900MB
#P OB98/GEN NMR

erre ene a

0 1
  C      174.137     124.615     -97.890
  O      175.428     124.463     -98.448
  H      173.681     125.523     -98.297
  H      174.202     124.711     -96.802
  H      173.511     123.755     -98.153
  P      176.314     123.241     -97.902
  C      177.191     122.472     -95.577
  O      176.432     123.425     -96.314
  C      177.477     123.017     -94.179
  O      178.330     124.186     -94.277
  C      176.239     123.482     -93.427
  O      175.509     122.407     -92.854
  C      176.862     124.382     -92.372
  O      177.311     123.634     -91.235
  C      178.048     125.015     -93.128
  N      177.770     126.400     -93.506
  C      178.118     127.360     -92.556
  O      178.626     127.090     -91.470
  N      177.824     128.658     -92.885
  C      177.181     129.072     -94.022
  O      176.898     130.245     -94.228
  C      176.826     128.011     -94.977
  C      177.129     126.739     -94.679
  O      177.782     123.592     -98.437
  O      175.867     121.889     -98.345
  H      178.016     123.000     -99.178
  H      176.510     123.220     -90.851
  H      178.069     129.368     -92.218
  H      176.315     128.302     -95.888
  H      176.862     125.938     -95.364
  H      178.948     125.002     -92.505
  H      176.143     125.115     -92.012
  H      175.599     124.091     -94.083
  H      178.010     122.247     -93.606
  H      178.140     122.283     -96.088
  H      176.626     121.533     -95.522
  P      173.904     122.483     -92.908
  C      172.118     123.851     -91.544
  O      173.473     123.461     -91.715
  O      173.526     121.015     -92.392
  O      173.377     122.833     -94.259
  H      174.215     120.651     -91.809
  H      172.038     124.501     -90.698
  H      171.514     122.982     -91.385
  H      171.781     124.364     -92.421

 6  7  8  9  10  11  12  13  14  15  16  27  31  32  33  34  35 0
 6-311+G(2d,p)
 ****
 36  37 0
 6-311+G(2d,p)
 ****
 1  2  3  4  5  17  18  19  20  21  22  23  24  25 0
 3-21G
 ****
 26  28  29  30  38  39  40  41  42  43  44  45 0
 3-21G
 ****


