%nproc=1
%NoSave
%Mem=1900MB
#P OB98/GEN NMR

erre ene a

0 1
  C      -25.191      36.707      18.951
  O      -25.313      38.075      18.620
  H      -25.382      36.589      20.021
  H      -24.182      36.345      18.735
  H      -25.927      36.116      18.400
  P      -24.964      38.530      17.121
  C      -25.911      37.855      14.805
  O      -25.883      37.586      16.198
  C      -26.282      36.593      14.031
  O      -25.330      35.537      14.274
  C      -27.633      35.990      14.399
  O      -28.736      36.722      13.891
  C      -27.496      34.621      13.751
  O      -27.675      34.742      12.329
  C      -26.027      34.272      14.097
  N      -25.905      33.448      15.297
  C      -26.126      32.074      15.140
  O      -26.409      31.608      14.037
  N      -26.059      31.261      16.245
  C      -25.812      31.776      17.409
  N      -25.804      30.934      18.479
  C      -25.555      33.214      17.618
  C      -25.621      33.984      16.534
  O      -23.513      38.560      16.760
  O      -25.690      39.946      16.956
  H      -28.613      34.958      12.177
  H      -25.493      40.276      16.045
  H      -25.362      33.593      18.610
  H      -25.461      35.054      16.609
  H      -25.544      33.753      13.261
  H      -28.231      33.897      14.111
  H      -27.719      35.856      15.482
  H      -26.227      36.834      12.961
  H      -26.026      29.963      18.304
  H      -24.923      38.221      14.509
  H      -25.898      31.285      19.426
  H      -26.655      38.626      14.586
  P      -30.156      36.545      14.622
  C      -30.908      36.795      17.104
  O      -29.859      36.496      16.198
  O      -30.554      35.039      14.264
  O      -31.213      37.529      14.230
  H      -31.122      35.004      13.470
  H      -30.545      36.717      18.108
  H      -31.711      36.103      16.960
  H      -31.259      37.790      16.928

 6  7  8  9  10  11  12  13  14  15  16  26  30  31  32  33  35 0
 6-311+G(2d,p)
 ****
 37  38 0
 6-311+G(2d,p)
 ****
 1  2  3  4  5  17  18  19  20  21  22  23  24  25 0
 3-21G
 ****
 27  28  29  34  36  39  40  41  42  43  44  45  46 0
 3-21G
 ****


