%nproc=1
%NoSave
%Mem=1900MB
#P OB98/GEN NMR

erre ene a

0 1
  C     -928.381    -902.879    -474.699
  O     -927.517    -902.761    -475.836
  P     -928.073    -902.388    -477.287
  C     -926.379    -900.501    -477.745
  O     -927.758    -900.848    -477.598
  C     -925.899    -899.567    -476.622
  O     -926.071    -900.186    -475.337
  C     -924.429    -899.171    -476.722
  O     -924.242    -898.155    -477.685
  C     -924.152    -898.752    -475.273
  O     -924.600    -897.400    -475.050
  C     -924.998    -899.749    -474.479
  N     -921.976    -901.462    -470.733
  C     -922.612    -900.285    -470.907
  N     -923.393    -899.895    -471.943
  C     -923.517    -900.890    -472.835
  C     -922.925    -902.154    -472.792
  C     -922.118    -902.423    -471.668
  N     -921.460    -903.624    -471.502
  N     -923.255    -902.888    -473.906
  C     -924.050    -902.101    -474.609
  N     -924.241    -900.894    -473.993
  O     -929.493    -902.771    -477.529
  O     -927.111    -903.177    -478.310
  H     -925.573    -897.418    -474.977
  H     -927.593    -903.376    -479.134
  H     -922.467    -899.559    -470.122
  H     -924.521    -902.368    -475.539
  H     -925.461    -899.277    -473.606
  H     -923.081    -898.776    -475.031
  H     -923.827    -900.042    -476.961
  H     -926.544    -898.669    -476.647
  H     -926.250    -900.006    -478.712
  H     -920.872    -903.728    -470.686
  H     -921.526    -904.328    -472.221
  H     -925.783    -901.427    -477.742
  P     -923.989    -898.542    -479.219
  C     -926.027    -897.283    -480.153
  O     -925.428    -898.539    -479.945
  O     -923.161    -899.769    -479.450
  O     -923.299    -897.241    -479.826
  H     -922.704    -897.500    -480.569
  H     -926.502    -896.951    -479.215
  H     -926.789    -897.370    -480.916
  H     -925.282    -896.536    -480.468
  H     -927.802    -903.134    -473.836
  H     -929.107    -903.644    -474.880
  H     -928.879    -901.947    -474.531

 3  4  5  6  7  8  9  10  11  12  22  25  29  30  31  32 0
 6-311+G(2d,p)
 ****
 33  36  37 0
 6-311+G(2d,p)
 ****
 1  2  13  14  15  16  17  18  19  20  21  23  24  26 0
 3-21G
 ****
 27  28  34  35  38  39  40  41  42  43  44  45  46  47  48 0
 3-21G
 ****


