%nproc=1
%NoSave
%Mem=1900MB
#P OB98/GEN NMR

erre ene a

0 1
  C      140.409     774.200      46.748
  O      140.983     774.648      45.542
  H      141.165     774.242      47.534
  H      140.080     773.162      46.633
  H      139.558     774.819      47.044
  P      140.018     775.120      44.355
  C      139.650     772.667      43.636
  O      140.021     773.981      43.226
  C      139.502     771.723      42.443
  O      138.377     772.128      41.635
  C      140.729     771.744      41.526
  O      141.762     770.846      41.903
  C      140.123     771.343      40.180
  O      140.104     769.915      40.021
  C      138.700     771.896      40.256
  N      137.325     774.037      35.823
  C      137.522     772.702      36.113
  N      137.371     771.840      35.083
  N      137.855     772.264      37.301
  C      138.067     773.255      38.202
  C      137.924     774.611      38.022
  C      137.485     775.077      36.723
  O      137.281     776.250      36.420
  N      138.275     775.310      39.153
  C      138.708     774.380      39.981
  N      138.527     773.113      39.478
  O      140.842     776.305      43.653
  O      138.664     775.599      44.781
  H      139.457     769.552      40.657
  H      140.223     776.961      43.286
  H      137.043     774.308      34.895
  H      139.112     774.562      40.973
  H      137.965     771.173      39.875
  H      140.721     771.750      39.350
  H      137.199     772.130      34.137
  H      141.134     772.757      41.433
  H      137.690     770.878      35.205
  H      139.288     770.710      42.806
  H      138.693     772.765      44.155
  H      140.375     772.271      44.354
  P      143.019     771.349      42.756
  C      144.409     772.211      40.699
  O      144.300     771.342      41.810
  O      143.285     770.127      43.752
  O      142.820     772.641      43.488
  H      142.895     770.307      44.628
  H      145.342     772.042      40.204
  H      144.362     773.226      41.034
  H      143.605     772.022      40.018

 6  7  8  9  10  11  12  13  14  15  26  29  33  34 0
 6-311+G(2d,p)
 ****
 36  38  39  40  41 0
 6-311+G(2d,p)
 ****
 1  2  3  4  5  16  17  18  19  20  21  22  23  24  25 0
 3-21G
 ****
 27  28  30  31  32  35  37  42  43  44  45  46  47 0
 3-21G
 ****
 48  49 0
 3-21G
 ****


