%nproc=1
%NoSave
%Mem=1900MB
#P OB98/GEN NMR

erre ene a

0 1
  C      -60.170     151.977    -690.228
  O      -59.199     152.534    -691.095
  P      -59.394     154.001    -691.715
  C      -61.224     155.242    -692.995
  O      -60.725     153.975    -692.612
  C      -61.251     155.391    -694.519
  O      -59.887     155.365    -695.039
  C      -62.045     154.287    -695.251
  O      -62.644     154.903    -696.392
  C      -60.938     153.331    -695.703
  O      -61.335     152.494    -696.784
  C      -59.838     154.331    -696.050
  N      -55.733     153.347    -698.940
  C      -56.923     153.912    -699.232
  N      -57.991     154.111    -698.403
  C      -57.716     153.673    -697.179
  C      -56.565     153.037    -696.736
  C      -55.516     152.887    -697.678
  N      -54.291     152.336    -697.385
  N      -56.686     152.666    -695.402
  C      -57.885     153.071    -695.064
  N      -58.526     153.741    -696.061
  O      -58.180     154.563    -692.404
  O      -59.806     154.903    -690.450
  H      -61.782     153.046    -697.459
  H      -59.069     155.470    -690.180
  H      -57.043     154.250    -700.264
  H      -58.363     152.900    -694.087
  H      -60.011     154.822    -697.023
  H      -60.636     152.691    -694.868
  H      -62.791     153.795    -694.633
  H      -61.666     156.378    -694.764
  H      -60.541     156.009    -692.574
  H      -53.589     152.397    -698.092
  H      -54.013     152.245    -696.412
  H      -62.226     155.405    -692.571
  P      -64.077     154.373    -696.932
  C      -64.886     152.414    -698.357
  O      -63.767     153.161    -697.912
  O      -64.979     155.428    -697.468
  O      -64.706     153.649    -695.645
  H      -65.662     153.537    -695.769
  H      -65.181     151.714    -697.581
  H      -64.639     151.874    -699.270
  H      -65.753     153.073    -698.575
  H      -59.858     150.999    -689.925
  H      -61.108     151.910    -690.739
  H      -60.278     152.601    -689.365

 3  4  5  6  7  8  9  10  11  12  22  25  29  30  31  32 0
 6-311+G(2d,p)
 ****
 33  36  37 0
 6-311+G(2d,p)
 ****
 1  2  13  14  15  16  17  18  19  20  21  23  24  26 0
 3-21G
 ****
 27  28  34  35  38  39  40  41  42  43  44  45  46  47  48 0
 3-21G
 ****


