%nproc=1
%NoSave
%Mem=1900MB
#P OB98/GEN NMR

erre ene a

0 1
  C     -947.890     404.747    -342.343
  O     -947.195     405.896    -341.843
  P     -946.039     406.497    -342.799
  C     -944.659     407.637    -340.891
  O     -944.734     406.614    -341.874
  C     -943.705     407.203    -339.762
  O     -944.315     406.184    -338.949
  C     -942.386     406.633    -340.264
  O     -941.486     407.668    -340.591
  C     -941.956     405.794    -339.050
  O     -941.336     406.635    -338.041
  C     -943.293     405.243    -338.543
  N     -945.266     400.723    -337.385
  C     -944.935     401.780    -336.553
  N     -945.212     401.641    -335.247
  N     -944.375     402.907    -336.985
  C     -944.150     402.882    -338.324
  C     -944.425     401.893    -339.236
  C     -945.070     400.703    -338.763
  O     -945.476     399.771    -339.457
  N     -944.009     402.244    -340.497
  C     -943.537     403.479    -340.359
  N     -943.619     403.925    -339.062
  O     -946.514     408.001    -343.016
  O     -945.826     405.743    -344.087
  H     -940.938     406.069    -337.352
  H     -946.964     408.088    -343.888
  H     -945.705     399.906    -336.992
  H     -943.156     404.083    -341.163
  H     -943.322     405.173    -337.450
  H     -941.213     405.051    -339.315
  H     -945.610     400.814    -334.835
  H     -942.559     405.957    -341.125
  H     -944.969     402.410    -334.629
  H     -943.524     408.093    -339.117
  H     -945.660     407.790    -340.472
  H     -944.312     408.578    -341.358
  P     -940.218     407.272    -341.503
  C     -939.047     409.451    -340.671
  O     -938.957     408.062    -340.902
  O     -940.510     408.026    -342.899
  O     -940.028     405.810    -341.715
  H     -940.194     407.467    -343.634
  H     -938.387     409.717    -339.852
  H     -940.074     409.749    -340.438
  H     -938.723     409.977    -341.581
  H     -948.627     404.438    -341.631
  H     -947.194     403.951    -342.503
  H     -948.368     404.994    -343.268

 3  4  5  6  7  8  9  10  11  12  23  26  30  31 0
 6-311+G(2d,p)
 ****
 33  35  36  37  38 0
 6-311+G(2d,p)
 ****
 1  2  13  14  15  16  17  18  19  20  21  22  24  25 0
 3-21G
 ****
 27  28  29  32  34  39  40  41  42  43  44  45  46  47  48  49 0
 3-21G
 ****


