%nproc=1
%NoSave
%Mem=1900MB
#P OB98/GEN NMR

erre ene a

0 1
  C      195.942     713.664    1298.516
  O      196.443     714.724    1299.349
  P      198.042     714.934    1299.446
  C      198.215     717.072    1297.988
  O      198.353     716.505    1299.294
  C      198.256     718.607    1298.062
  O      196.993     719.109    1298.620
  C      199.373     719.180    1298.985
  O      200.648     719.436    1298.421
  C      198.770     720.550    1299.345
  O      199.052     721.492    1298.286
  C      197.259     720.284    1299.397
  N      195.396     722.652    1303.536
  C      195.784     723.114    1302.338
  N      196.265     722.425    1301.284
  C      196.328     721.104    1301.565
  C      195.961     720.486    1302.746
  C      195.474     721.320    1303.772
  N      195.075     720.857    1305.016
  N      196.148     719.113    1302.673
  C      196.649     718.923    1301.471
  N      196.762     720.098    1300.755
  O      198.864     714.021    1298.583
  O      198.324     714.678    1301.003
  H      198.706     721.088    1297.472
  H      199.182     714.200    1301.083
  H      195.714     724.190    1302.202
  H      196.948     717.951    1301.065
  H      196.674     721.095    1298.964
  H      199.204     720.940    1300.264
  H      199.466     718.568    1299.890
  H      198.379     719.014    1297.036
  H      197.257     716.757    1297.557
  H      194.788     721.511    1305.704
  H      195.180     719.853    1305.227
  H      198.989     716.658    1297.362
  P      201.889     719.899    1299.342
  C      203.383     717.803    1298.799
  O      203.191     719.198    1298.682
  O      201.700     719.660    1300.810
  O      202.049     721.434    1298.916
  H      202.361     721.577    1298.013
  H      204.188     717.498    1298.126
  H      202.479     717.256    1298.540
  H      203.681     717.565    1299.845
  H      194.873     713.654    1298.556
  H      196.321     712.726    1298.865
  H      196.259     713.823    1297.507

 3  4  5  6  7  8  9  10  11  12  22  25  29  30  31  32 0
 6-311+G(2d,p)
 ****
 33  36  37 0
 6-311+G(2d,p)
 ****
 1  2  13  14  15  16  17  18  19  20  21  23  24  26 0
 3-21G
 ****
 27  28  34  35  38  39  40  41  42  43  44  45  46  47  48 0
 3-21G
 ****


