%nproc=1
%NoSave
%Mem=1900MB
#P OB98/GEN NMR

erre ene a

0 1
  C      -97.473     178.903    -348.255
  O      -96.868     179.324    -347.044
  H      -96.801     179.145    -349.083
  H      -98.419     179.426    -348.411
  H      -97.643     177.823    -348.242
  P      -97.663     179.086    -345.674
  C      -95.515     178.115    -344.615
  O      -96.556     179.082    -344.514
  C      -94.185     178.730    -344.196
  O      -93.729     179.674    -345.193
  C      -94.249     179.504    -342.876
  O      -94.170     178.612    -341.777
  C      -93.018     180.394    -343.016
  O      -91.833     179.622    -342.756
  C      -93.085     180.782    -344.504
  N      -93.316     185.809    -343.847
  C      -92.410     184.889    -343.353
  N      -91.451     185.375    -342.530
  N      -92.450     183.608    -343.624
  C      -93.504     183.261    -344.400
  C      -94.474     184.074    -344.935
  C      -94.388     185.498    -344.678
  O      -95.159     186.350    -345.104
  N      -95.425     183.353    -345.617
  C      -95.001     182.103    -345.525
  N      -93.844     181.997    -344.781
  O      -98.581     177.897    -345.637
  O      -98.446     180.461    -345.436
  H      -91.905     179.313    -341.830
  H      -99.347     180.427    -345.816
  H      -93.238     186.777    -343.585
  H      -95.488     181.249    -345.978
  H      -92.093     180.909    -344.947
  H      -93.017     181.235    -342.331
  H      -91.543     186.275    -342.072
  H      -95.141     180.152    -342.827
  H      -90.805     184.710    -342.123
  H      -93.438     177.924    -344.144
  H      -95.469     177.788    -345.660
  H      -95.735     177.251    -343.988
  P      -95.197     178.719    -340.545
  C      -95.904     176.237    -340.428
  O      -95.141     177.287    -339.833
  O      -96.573     179.186    -340.912
  O      -94.457     179.663    -339.490
  H      -94.638     180.628    -339.618
  H      -95.780     175.340    -339.859
  H      -95.565     176.073    -341.430
  H      -96.938     176.511    -340.441

 6  7  8  9  10  11  12  13  14  15  26  29  33  34 0
 6-311+G(2d,p)
 ****
 36  38  39  40  41 0
 6-311+G(2d,p)
 ****
 1  2  3  4  5  16  17  18  19  20  21  22  23  24  25 0
 3-21G
 ****
 27  28  30  31  32  35  37  42  43  44  45  46  47 0
 3-21G
 ****
 48  49 0
 3-21G
 ****


