%nproc=1
%NoSave
%Mem=1900MB
#P OB98/GEN NMR

erre ene a

0 1
  C      -17.370    -116.037     352.035
  O      -17.317    -116.992     350.991
  H      -18.391    -115.999     352.424
  H      -17.100    -115.050     351.655
  H      -16.695    -116.326     352.846
  P      -15.896    -117.179     350.268
  C      -14.280    -115.448     349.211
  O      -15.627    -115.822     349.452
  C      -14.221    -114.141     348.423
  O      -14.684    -113.037     349.231
  C      -12.832    -113.768     347.926
  O      -12.518    -114.446     346.721
  C      -12.980    -112.265     347.731
  O      -13.628    -111.955     346.481
  C      -13.869    -111.875     348.921
  N      -12.639    -107.920     351.812
  C      -13.467    -107.996     350.711
  N      -14.011    -106.831     350.284
  N      -13.733    -109.108     350.076
  C      -13.096    -110.184     350.595
  C      -12.265    -110.241     351.689
  C      -12.004    -109.006     352.401
  O      -11.329    -108.884     353.419
  N      -11.826    -111.519     351.914
  C      -12.361    -112.227     350.937
  N      -13.128    -111.458     350.101
  O      -16.205    -118.246     349.111
  O      -14.784    -117.634     351.150
  H      -14.201    -112.697     346.223
  H      -15.404    -118.778     348.948
  H      -12.484    -107.038     352.267
  H      -12.225    -113.290     350.793
  H      -14.552    -111.053     348.672
  H      -12.009    -111.762     347.713
  H      -13.590    -105.939     350.508
  H      -12.076    -113.963     348.698
  H      -14.601    -106.875     349.464
  H      -14.919    -114.238     347.579
  H      -13.788    -116.239     348.637
  H      -13.762    -115.330     350.171
  P      -10.971    -114.531     346.291
  C       -9.022    -112.807     346.226
  O      -10.427    -113.023     346.266
  O      -11.038    -114.925     344.742
  O      -10.159    -115.496     347.086
  H      -10.172    -115.267     344.446
  H       -8.823    -111.756     346.214
  H       -8.617    -113.257     345.344
  H       -8.569    -113.246     347.090

 6  7  8  9  10  11  12  13  14  15  26  29  33  34 0
 6-311+G(2d,p)
 ****
 36  38  39  40  41 0
 6-311+G(2d,p)
 ****
 1  2  3  4  5  16  17  18  19  20  21  22  23  24  25 0
 3-21G
 ****
 27  28  30  31  32  35  37  42  43  44  45  46  47 0
 3-21G
 ****
 48  49 0
 3-21G
 ****


