%nproc=1
%NoSave
%Mem=1900MB
#P OB98/GEN NMR

erre ene a

0 1
  C     -256.676    -246.875      61.247
  O     -255.996    -245.822      61.904
  H     -257.702    -246.917      61.620
  H     -256.186    -247.831      61.455
  H     -256.697    -246.695      60.170
  P     -254.446    -245.624      61.542
  C     -252.223    -246.776      62.231
  O     -253.631    -246.709      62.398
  C     -251.786    -248.238      62.158
  O     -252.402    -248.877      61.015
  C     -250.287    -248.429      61.969
  O     -249.567    -248.258      63.178
  C     -250.243    -249.859      61.454
  O     -250.275    -250.809      62.531
  C     -251.524    -249.944      60.598
  N     -251.238    -249.887      59.167
  C     -250.882    -251.095      58.576
  O     -250.808    -252.157      59.197
  N     -250.577    -251.042      57.242
  C     -250.553    -249.918      56.470
  O     -250.197    -249.926      55.298
  C     -250.950    -248.669      57.147
  C     -251.263    -248.709      58.445
  O     -254.087    -244.232      62.246
  O     -254.134    -245.614      60.081
  H     -254.052    -243.521      61.579
  H     -250.377    -251.689      62.113
  H     -250.304    -251.905      56.800
  H     -250.951    -247.758      56.564
  H     -251.538    -247.801      58.970
  H     -252.055    -250.883      60.800
  H     -249.330    -250.056      60.891
  H     -249.912    -247.759      61.185
  H     -252.130    -248.751      63.066
  H     -251.730    -246.300      63.085
  H     -251.945    -246.238      61.319
  P     -247.967    -248.174      63.113
  C     -246.112    -249.787      62.187
  O     -247.459    -249.603      62.582
  O     -247.592    -248.182      64.668
  O     -247.460    -247.002      62.342
  H     -248.186    -248.738      65.200
  H     -245.969    -250.798      61.867
  H     -245.466    -249.581      63.015
  H     -245.883    -249.122      61.381

 6  7  8  9  10  11  12  13  14  15  16  27  31  32  33  34  35 0
 6-311+G(2d,p)
 ****
 36  37 0
 6-311+G(2d,p)
 ****
 1  2  3  4  5  17  18  19  20  21  22  23  24  25 0
 3-21G
 ****
 26  28  29  30  38  39  40  41  42  43  44  45 0
 3-21G
 ****


