%nproc=1
%NoSave
%Mem=1900MB
#P OB98/GEN NMR

erre ene a

0 1
  C      134.146      66.453    -176.023
  O      135.282      65.994    -175.281
  P      135.164      64.590    -174.506
  C      136.585      62.997    -175.988
  O      136.491      63.737    -174.780
  C      137.938      62.283    -176.077
  O      137.911      61.191    -177.017
  C      139.074      63.186    -176.548
  O      139.598      63.972    -175.480
  C      140.101      62.161    -176.999
  O      140.806      61.633    -175.856
  C      139.220      61.072    -177.620
  N      140.898      59.382    -182.157
  C      141.276      59.089    -180.893
  N      140.793      59.590    -179.739
  C      139.815      60.479    -179.977
  C      139.331      60.884    -181.216
  C      139.915      60.287    -182.346
  N      139.530      60.590    -183.633
  N      138.325      61.821    -181.071
  C      138.197      61.973    -179.765
  N      139.079      61.189    -179.064
  O      134.043      63.814    -175.348
  O      134.770      64.724    -173.073
  H      140.134      61.403    -175.187
  H      133.509      63.255    -174.756
  H      142.063      58.352    -180.793
  H      137.485      62.628    -179.287
  H      139.589      60.057    -177.415
  H      140.857      62.585    -177.668
  H      138.758      63.805    -177.398
  H      138.180      61.884    -175.081
  H      136.452      63.658    -176.850
  H      139.978      60.106    -184.391
  H      138.777      61.251    -183.778
  H      135.763      62.270    -176.029
  P      139.937      65.505    -175.796
  C      137.555      66.536    -175.706
  O      138.804      66.366    -175.059
  O      139.587      65.642    -177.353
  O      141.351      65.892    -175.505
  H      140.159      66.312    -177.771
  H      136.826      66.867    -174.961
  H      137.205      65.593    -176.143
  H      137.640      67.299    -176.480
  H      134.375      67.393    -176.480
  H      133.312      66.571    -175.363
  H      133.902      65.738    -176.781

 3  4  5  6  7  8  9  10  11  12  22  25  29  30  31  32 0
 6-311+G(2d,p)
 ****
 33  36  37 0
 6-311+G(2d,p)
 ****
 1  2  13  14  15  16  17  18  19  20  21  23  24  26 0
 3-21G
 ****
 27  28  34  35  38  39  40  41  42  43  44  45  46  47  48 0
 3-21G
 ****


