%nproc=1
%NoSave
%Mem=1900MB
#P OB98/GEN NMR

erre ene a

0 1
  C      227.800     -25.122     288.811
  O      226.623     -25.411     288.087
  H      228.617     -24.967     288.103
  H      228.057     -25.960     289.462
  H      227.677     -24.214     289.408
  P      225.234     -25.519     288.880
  C      224.115     -25.628     286.560
  O      224.172     -26.173     287.874
  C      223.032     -26.339     285.751
  O      221.754     -26.208     286.411
  C      222.831     -25.765     284.356
  O      223.866     -26.155     283.477
  C      221.455     -26.312     284.017
  O      221.536     -27.663     283.547
  C      220.738     -26.252     285.385
  N      219.836     -25.104     285.482
  C      218.490     -25.359     285.240
  O      218.047     -26.474     284.969
  N      217.665     -24.264     285.261
  C      218.071     -22.962     285.355
  O      217.338     -22.010     285.121
  C      219.494     -22.762     285.668
  C      220.300     -23.822     285.705
  O      224.780     -24.270     289.560
  O      225.496     -26.696     289.936
  H      225.666     -26.305     290.814
  H      221.929     -27.611     282.652
  H      216.693     -24.435     285.043
  H      219.841     -21.745     285.825
  H      221.361     -23.696     285.904
  H      220.156     -27.168     285.553
  H      220.966     -25.718     283.244
  H      222.774     -24.670     284.409
  H      223.284     -27.408     285.701
  H      225.086     -25.776     286.077
  H      223.908     -24.552     286.628
  P      224.511     -25.097     282.461
  C      226.596     -26.561     282.137
  O      225.525     -25.874     281.498
  O      225.070     -23.864     283.096
  O      223.305     -24.724     281.475
  H      223.236     -23.751     281.414
  H      227.204     -27.040     281.398
  H      226.200     -27.297     282.805
  H      227.189     -25.862     282.689

 6  7  8  9  10  11  12  13  14  15  16  27  31  32  33  34  35 0
 6-311+G(2d,p)
 ****
 36  37 0
 6-311+G(2d,p)
 ****
 1  2  3  4  5  17  18  19  20  21  22  23  24  25 0
 3-21G
 ****
 26  28  29  30  38  39  40  41  42  43  44  45 0
 3-21G
 ****


