%nproc=1
%NoSave
%Mem=1900MB
#P OB98/GEN NMR

erre ene a

0 1
  C       21.068     -67.104      66.048
  O       21.024     -66.352      67.251
  P       21.301     -64.774      67.156
  C       23.643     -65.221      68.159
  O       22.897     -64.593      67.126
  C       25.136     -65.180      67.853
  O       25.409     -66.059      66.726
  C       25.668     -63.785      67.490
  O       26.921     -63.569      68.155
  C       25.951     -63.889      66.000
  O       26.949     -62.966      65.580
  C       26.359     -65.358      65.898
  N       28.726     -68.523      62.754
  C       28.820     -68.408      64.127
  N       29.718     -69.214      64.739
  N       28.106     -67.576      64.838
  C       27.229     -66.855      64.097
  C       27.036     -66.886      62.735
  C       27.877     -67.769      61.955
  O       27.904     -67.852      60.730
  N       26.043     -66.020      62.352
  C       25.638     -65.463      63.477
  N       26.362     -65.900      64.558
  O       20.885     -64.251      68.610
  O       20.547     -64.059      66.088
  H       27.792     -63.254      65.980
  H       20.208     -63.552      68.528
  H       29.314     -69.169      62.254
  H       24.855     -64.720      63.553
  H       27.359     -65.510      66.323
  H       25.028     -63.685      65.446
  H       30.274     -69.901      64.256
  H       24.981     -62.967      67.724
  H       29.785     -69.161      65.747
  H       25.679     -65.591      68.714
  H       23.323     -66.264      68.250
  H       23.440     -64.707      69.106
  P       27.226     -62.059      68.609
  C       29.019     -61.320      66.869
  O       27.666     -61.285      67.277
  O       28.587     -62.190      69.441
  O       26.129     -61.430      69.402
  H       28.672     -61.453      70.074
  H       29.609     -62.035      67.452
  H       29.452     -60.325      66.987
  H       29.065     -61.604      65.814
  H       20.866     -68.133      66.263
  H       22.039     -67.016      65.608
  H       20.332     -66.731      65.367

 3  4  5  6  7  8  9  10  11  12  23  26  30  31  33  0
 6-311+G(2d,p)
 ****
 35  36  37  38 0
 6-311+G(2d,p)
 ****
 1  2  13  14  15  16  17  18  19  20  21  22  24  25  27  28  29 0
 3-21G
 ****
 32  34  39  40  41  42  43  44  45  46  47  48  49 0
 3-21G
 ****


