%nproc=1
%NoSave
%Mem=1900MB
#P OB98/GEN NMR

erre ene a

0 1
  C       18.076      22.358      36.611
  O       18.078      22.415      38.023
  H       17.041      22.378      36.261
  H       18.549      21.440      36.255
  H       18.599      23.228      36.200
  P       19.464      22.142      38.787
  C       18.235      23.521      40.592
  O       19.176      22.482      40.332
  C       17.934      23.625      42.089
  O       19.164      23.702      42.838
  C       17.155      24.873      42.472
  O       15.819      24.882      42.017
  C       17.444      24.994      43.962
  O       16.561      24.227      44.774
  C       18.877      24.417      44.057
  N       19.866      25.452      44.327
  C       20.197      25.640      45.664
  O       19.687      25.004      46.586
  N       21.112      26.623      45.920
  C       21.675      27.450      44.993
  O       22.460      28.342      45.291
  C       21.268      27.221      43.598
  C       20.394      26.247      43.331
  O       20.665      22.842      38.228
  O       19.591      20.548      38.786
  H       15.660      24.574      44.625
  H       20.515      20.264      38.987
  H       21.372      26.767      46.882
  H       21.692      27.861      42.836
  H       20.076      26.060      42.309
  H       18.934      23.680      44.868
  H       17.370      26.030      44.300
  H       17.639      25.734      41.996
  H       17.405      22.717      42.399
  H       17.312      23.275      40.056
  H       18.622      24.472      40.213
  P       15.127      26.159      41.353
  C       13.509      24.595      40.055
  O       13.647      25.743      40.886
  O       15.968      26.972      40.424
  O       14.829      27.068      42.653
  H       14.928      28.002      42.386
  H       12.475      24.442      39.827
  H       13.892      23.737      40.566
  H       14.056      24.744      39.148

 6  7  8  9  10  11  12  13  14  15  16  26  31  32  33  34  35 0
 6-311+G(2d,p)
 ****
 36  37 0
 6-311+G(2d,p)
 ****
 1  2  3  4  5  17  18  19  20  21  22  23  24  25 0
 3-21G
 ****
 27  28  29  30  38  39  40  41  42  43  44  45 0
 3-21G
 ****


