%nproc=1
%NoSave
%Mem=1900MB
#P OB98/GEN NMR

erre ene a

0 1
  C      229.720    -239.919     579.811
  O      229.179    -238.789     580.464
  P      227.659    -238.361     580.190
  C      226.305    -238.202     578.011
  O      227.544    -237.921     578.650
  C      226.370    -237.820     576.535
  O      227.578    -238.332     575.934
  C      225.225    -238.381     575.697
  O      224.037    -237.646     575.911
  C      225.807    -238.263     574.292
  O      225.646    -236.924     573.789
  C      227.295    -238.565     574.536
  N      229.951    -241.445     571.266
  C      229.651    -240.128     571.273
  N      228.905    -239.438     572.163
  C      228.421    -240.262     573.109
  C      228.611    -241.634     573.214
  C      229.441    -242.230     572.246
  N      229.800    -243.559     572.268
  N      227.926    -242.132     574.308
  C      227.327    -241.085     574.840
  N      227.653    -239.923     574.187
  O      227.083    -237.390     581.170
  O      226.860    -239.750     580.233
  H      226.102    -236.326     574.408
  H      226.194    -239.717     580.946
  H      230.076    -239.544     570.461
  H      226.677    -241.107     575.704
  H      227.947    -237.897     573.963
  H      225.324    -238.933     573.578
  H      225.072    -239.439     575.933
  H      226.398    -236.725     576.471
  H      225.518    -237.625     578.515
  H      230.514    -243.852     571.617
  H      229.681    -244.078     573.134
  H      226.077    -239.269     578.114
  P      222.619    -238.315     575.582
  C      221.853    -239.576     573.479
  O      222.517    -238.431     573.986
  O      221.440    -237.687     576.257
  O      222.806    -239.841     576.038
  H      221.953    -240.192     576.356
  H      222.533    -240.435     573.532
  H      221.591    -239.398     572.441
  H      220.948    -239.785     574.055
  H      230.738    -240.052     580.113
  H      229.678    -239.773     578.752
  H      229.154    -240.788     580.074

 3  4  5  6  7  8  9  10  11  12  22  25  29  30  31  32 0
 6-311+G(2d,p)
 ****
 33  36  37 0
 6-311+G(2d,p)
 ****
 1  2  13  14  15  16  17  18  19  20  21  23  24  26 0
 3-21G
 ****
 27  28  34  35  38  39  40  41  42  43  44  45  46  47  48 0
 3-21G
 ****


