%nproc=1
%NoSave
%Mem=1900MB
#P OB98/GEN NMR

erre ene a

0 1
  C      865.349    -820.988    -425.856
  O      865.309    -821.764    -424.681
  H      865.476    -819.938    -425.580
  H      864.415    -821.094    -426.409
  H      866.196    -821.287    -426.488
  P      865.323    -823.359    -424.866
  C      863.862    -825.093    -426.136
  O      864.056    -823.734    -425.772
  C      862.378    -825.390    -426.350
  O      861.769    -824.320    -427.085
  C      862.103    -826.682    -427.133
  O      862.162    -827.823    -426.300
  C      860.683    -826.400    -427.612
  O      859.756    -826.613    -426.527
  C      860.750    -824.914    -427.956
  N      859.051    -824.772    -432.752
  C      858.377    -825.093    -431.578
  N      857.077    -825.450    -431.697
  N      858.947    -825.095    -430.389
  C      860.248    -824.726    -430.423
  C      861.016    -824.375    -431.524
  C      860.381    -824.389    -432.821
  O      860.907    -824.084    -433.885
  N      862.304    -824.039    -431.152
  C      862.318    -824.236    -429.849
  N      861.108    -824.654    -429.355
  O      864.920    -823.915    -423.410
  O      866.627    -823.934    -425.319
  H      858.900    -826.262    -426.815
  H      865.416    -824.735    -423.239
  H      858.570    -824.811    -433.626
  H      863.178    -824.067    -429.218
  H      859.806    -824.392    -427.784
  H      860.383    -827.064    -428.425
  H      856.621    -825.536    -432.577
  H      862.779    -826.777    -427.995
  H      856.567    -825.682    -430.835
  H      861.900    -825.432    -425.359
  H      864.256    -825.741    -425.337
  H      864.432    -825.287    -427.061
  P      862.098    -829.260    -427.006
  C      860.217    -830.604    -428.216
  O      860.584    -829.414    -427.528
  O      862.164    -830.273    -425.770
  O      863.146    -829.522    -428.023
  H      862.495    -831.152    -426.084
  H      859.185    -830.551    -428.495
  H      860.371    -831.448    -427.576
  H      860.819    -830.708    -429.094

 6  7  8  9  10  11  12  13  14  15  26  29  33  34 0
 6-311+G(2d,p)
 ****
 36  38  39  40  41 0
 6-311+G(2d,p)
 ****
 1  2  3  4  5  16  17  18  19  20  21  22  23  24  25 0
 3-21G
 ****
 27  28  30  31  32  35  37  42  43  44  45  46  47 0
 3-21G
 ****
 48  49 0
 3-21G
 ****


