%nproc=1
%NoSave
%Mem=1900MB
#P OB98/GEN NMR

erre ene a

0 1
  C     1838.637    2113.637    -857.250
  O     1837.624    2113.500    -858.213
  P     1836.706    2114.786    -858.533
  C     1836.067    2113.561    -860.784
  O     1835.637    2114.237    -859.626
  C     1834.896    2112.981    -861.530
  O     1833.807    2113.987    -861.578
  C     1835.206    2112.615    -862.953
  O     1835.878    2111.375    -863.097
  C     1833.792    2112.602    -863.595
  O     1833.145    2111.309    -863.401
  C     1833.054    2113.659    -862.748
  N     1832.774    2114.885    -863.518
  C     1831.552    2114.929    -864.179
  O     1830.731    2113.976    -864.078
  N     1831.222    2116.014    -864.923
  C     1832.087    2116.995    -865.028
  N     1831.717    2118.065    -865.792
  C     1833.407    2116.954    -864.393
  C     1833.655    2115.891    -863.658
  O     1837.719    2115.688    -859.451
  O     1836.160    2115.510    -857.347
  H     1833.603    2110.695    -863.980
  H     1837.488    2116.632    -859.372
  H     1834.118    2117.821    -864.496
  H     1834.606    2115.798    -863.156
  H     1832.098    2113.262    -862.397
  H     1833.794    2112.793    -864.657
  H     1835.790    2113.434    -863.470
  H     1834.498    2112.123    -860.990
  H     1830.808    2118.047    -866.265
  H     1836.678    2112.683    -860.430
  H     1832.321    2118.909    -865.925
  H     1836.677    2114.208    -861.420
  P     1837.212    2111.289    -863.955
  C     1837.747    2109.314    -862.493
  O     1837.745    2109.800    -863.764
  O     1838.258    2112.135    -863.104
  O     1837.153    2111.810    -865.368
  H     1839.104    2112.303    -863.555
  H     1837.953    2108.230    -862.461
  H     1836.750    2109.428    -862.005
  H     1838.514    2109.775    -861.832
  H     1839.158    2112.708    -857.146
  H     1838.202    2113.909    -856.311
  H     1839.323    2114.398    -857.559

 3  4  5  6  7  8  9  10  11  12  13  21  23  27  28  29  30  32 0
 6-311+G(2d,p)
 ****
 34  35 0
 6-311+G(2d,p)
 ****
 1  2  14  15  16  17  18  19  20  22  24  25  26 0
 3-21G
 ****
 31  33  36  37  38  39  40  41  42  43  44  45  46 0
 3-21G
 ****


