%nproc=1
%NoSave
%Mem=1900MB
#P OB98/GEN NMR

erre ene a

0 1
  C       -6.710     167.689     -90.840
  O       -7.895     167.846     -90.087
  H       -6.976     167.414     -91.862
  H       -6.106     166.888     -90.408
  H       -6.136     168.620     -90.862
  P       -7.760     168.545     -88.650
  C       -7.510     170.892     -89.722
  O       -8.239     170.071     -88.822
  C       -7.955     172.349     -89.590
  O       -9.319     172.464     -90.074
  C       -7.925     172.878     -88.150
  O       -7.479     174.237     -88.167
  C       -9.381     172.822     -87.723
  O       -9.685     173.755     -86.687
  C      -10.094     173.103     -89.042
  N      -14.826     174.089     -90.465
  C      -13.655     174.777     -90.719
  N      -13.762     175.902     -91.459
  N      -12.483     174.395     -90.286
  C      -12.524     173.232     -89.590
  C      -13.616     172.462     -89.267
  C      -14.912     172.912     -89.728
  O      -15.986     172.358     -89.515
  N      -13.250     171.372     -88.518
  C      -11.940     171.484     -88.388
  N      -11.453     172.592     -89.027
  O       -6.177     168.669     -88.452
  O       -8.396     167.810     -87.518
  H      -10.610     173.588     -86.403
  H       -5.895     168.119     -87.697
  H      -15.705     174.435     -90.811
  H      -11.305     170.802     -87.841
  H      -10.151     174.174     -89.267
  H       -9.619     171.816     -87.355
  H      -14.625     176.228     -91.864
  H       -7.281     172.293     -87.492
  H      -12.912     176.404     -91.690
  H       -7.331     172.966     -90.248
  H       -7.692     170.547     -90.745
  H       -6.440     170.809     -89.502
  P       -6.002     174.526     -87.610
  C       -4.404     174.542     -89.649
  O       -5.179     175.313     -88.743
  O       -5.329     173.073     -87.595
  O       -5.979     175.152     -86.255
  H       -5.235     172.760     -86.677
  H       -3.914     175.193     -90.343
  H       -5.043     173.869     -90.182
  H       -3.671     173.983     -89.105

 6  7  8  9  10  11  12  13  14  15  26  29  33  34 0
 6-311+G(2d,p)
 ****
 36  38  39  40  41 0
 6-311+G(2d,p)
 ****
 1  2  3  4  5  16  17  18  19  20  21  22  23  24  25 0
 3-21G
 ****
 27  28  30  31  32  35  37  42  43  44  45  46  47 0
 3-21G
 ****
 48  49 0
 3-21G
 ****


