%nproc=1
%NoSave
%Mem=1900MB
#P OB98/GEN NMR

erre ene a

0 1
  C      256.298     257.510    -107.445
  O      257.487     256.937    -107.954
  H      256.024     256.990    -106.524
  H      255.486     257.397    -108.169
  H      256.455     258.569    -107.222
  P      258.024     257.529    -109.346
  C      258.376     255.103    -110.199
  O      258.949     256.389    -109.997
  C      259.251     254.264    -111.128
  O      259.205     254.783    -112.475
  C      260.721     254.211    -110.724
  O      260.940     253.219    -109.737
  C      261.380     253.872    -112.055
  O      261.270     252.459    -112.341
  C      260.541     254.692    -113.046
  N      262.287     257.753    -116.667
  C      261.929     256.423    -116.723
  N      262.080     255.798    -117.914
  N      261.468     255.748    -115.701
  C      261.422     256.476    -114.559
  C      261.752     257.802    -114.373
  C      262.206     258.548    -115.532
  O      262.462     259.752    -115.565
  N      261.550     258.191    -113.075
  C      261.136     257.092    -112.467
  N      261.045     256.025    -113.327
  O      259.079     258.649    -108.897
  O      256.978     258.105    -110.242
  H      261.914     251.971    -111.794
  H      259.012     259.406    -109.508
  H      262.604     258.229    -117.496
  H      260.876     257.018    -111.418
  H      260.444     254.187    -114.018
  H      262.445     254.104    -112.048
  H      262.684     256.167    -118.637
  H      261.073     255.194    -110.387
  H      261.888     254.803    -117.931
  H      258.824     253.253    -111.160
  H      257.385     255.226    -110.645
  H      258.269     254.597    -109.231
  P      262.348     253.212    -108.973
  C      262.660     250.634    -109.085
  O      262.519     251.782    -108.258
  O      262.093     254.210    -107.745
  O      263.510     253.661    -109.794
  H      262.541     255.065    -107.917
  H      262.764     249.763    -108.472
  H      263.529     250.742    -109.700
  H      261.794     250.533    -109.705

 6  7  8  9  10  11  12  13  14  15  26  29  33  34 0
 6-311+G(2d,p)
 ****
 36  38  39  40  41 0
 6-311+G(2d,p)
 ****
 1  2  3  4  5  16  17  18  19  20  21  22  23  24  25 0
 3-21G
 ****
 27  28  30  31  32  35  37  42  43  44  45  46  47 0
 3-21G
 ****
 48  49 0
 3-21G
 ****


