%nproc=1
%NoSave
%Mem=1900MB
#P OB98/GEN NMR

erre ene a

0 1
  C      -14.905     -23.668    -131.943
  O      -14.681     -22.579    -131.071
  H      -15.372     -24.479    -131.378
  H      -13.957     -24.027    -132.356
  H      -15.575     -23.368    -132.752
  P      -13.946     -21.298    -131.697
  C      -16.212     -20.185    -132.224
  O      -14.994     -20.096    -131.494
  C      -17.334     -19.460    -131.481
  O      -17.873     -20.356    -130.472
  C      -16.872     -18.185    -130.765
  O      -17.914     -17.210    -130.829
  C      -16.700     -18.640    -129.326
  O      -16.782     -17.559    -128.403
  C      -17.817     -19.674    -129.207
  N      -18.356     -20.411    -124.198
  C      -18.851     -19.471    -125.032
  N      -18.675     -19.365    -126.366
  C      -17.945     -20.395    -126.833
  C      -17.374     -21.424    -126.106
  C      -17.597     -21.405    -124.717
  N      -17.069     -22.335    -123.853
  N      -16.657     -22.262    -126.938
  C      -16.803     -21.753    -128.149
  N      -17.556     -20.611    -128.128
  O      -13.431     -21.464    -133.087
  O      -12.837     -20.977    -130.588
  H      -16.877     -17.928    -127.499
  H      -13.214     -20.999    -129.688
  H      -19.462     -18.700    -124.569
  H      -16.373     -22.159    -129.059
  H      -18.796     -19.217    -129.013
  H      -15.718     -19.113    -129.201
  H      -15.952     -17.771    -131.177
  H      -18.146     -19.248    -132.186
  H      -16.487     -21.236    -132.369
  H      -17.282     -22.247    -122.871
  H      -16.504     -23.088    -124.219
  H      -16.049     -19.730    -133.207
  P      -17.684     -15.879    -131.691
  C      -18.077     -16.291    -134.205
  O      -18.662     -15.915    -132.966
  O      -16.263     -15.542    -131.997
  O      -18.358     -14.743    -130.777
  H      -17.788     -13.950    -130.784
  H      -18.824     -16.277    -134.971
  H      -17.669     -17.277    -134.122
  H      -17.297     -15.602    -134.455

 6  7  8  9  10  11  12  13  14  15  25  28  32  33  34  35 0
 6-311+G(2d,p)
 ****
 36  39  40 0
 6-311+G(2d,p)
 ****
 1  2  3  4  5  16  17  18  19  20  21  22  23  24 0
 3-21G
 ****
 26  27  29  30  31  37  38  41  42  43  44  45  46  47 0
 3-21G
 ****
 48 0
 3-21G
 ****


