%nproc=1
%NoSave
%Mem=1900MB
#P OB98/GEN NMR

erre ene a

0 1
  C      363.994     162.684     136.786
  O      365.325     162.922     137.203
  H      363.641     163.553     136.224
  H      363.347     162.536     137.655
  H      363.956     161.803     136.139
  P      365.991     161.804     138.145
  C      365.230     163.261     140.173
  O      365.221     161.986     139.545
  C      364.385     163.223     141.440
  O      362.993     162.999     141.124
  C      364.759     162.112     142.419
  O      365.924     162.398     143.176
  C      363.512     162.093     143.284
  O      363.519     163.231     144.167
  C      362.410     162.227     142.208
  N      361.926     160.932     141.719
  C      360.601     160.600     142.032
  O      359.898     161.366     142.683
  N      360.116     159.379     141.621
  C      360.872     158.574     140.944
  N      360.335     157.381     140.567
  C      362.268     158.888     140.582
  C      362.723     160.068     140.999
  O      367.440     162.403     138.461
  O      365.999     160.413     137.607
  H      364.131     163.015     144.894
  H      367.886     161.859     139.159
  H      362.865     158.179     140.028
  H      363.740     160.371     140.771
  H      361.555     162.798     142.592
  H      363.433     161.205     143.911
  H      364.854     161.146     141.910
  H      364.455     164.210     141.918
  H      359.396     157.169     140.880
  H      364.816     163.993     139.467
  H      360.885     156.631     140.173
  H      366.252     163.550     140.425
  P      366.817     161.149     143.651
  C      365.962     161.283     146.109
  O      366.082     160.509     144.923
  O      368.108     161.845     144.284
  O      367.174     160.183     142.564
  H      368.910     161.306     144.127
  H      365.450     160.713     146.856
  H      365.409     162.174     145.899
  H      366.937     161.544     146.465

 6  7  8  9  10  11  12  13  14  15  16  26  30  31  32  33  35 0
 6-311+G(2d,p)
 ****
 37  38 0
 6-311+G(2d,p)
 ****
 1  2  3  4  5  17  18  19  20  21  22  23  24  25 0
 3-21G
 ****
 27  28  29  34  36  39  40  41  42  43  44  45  46 0
 3-21G
 ****


