%nproc=1
%NoSave
%Mem=1900MB
#P OB98/GEN NMR

erre ene a

0 1
  C      107.062     614.690      44.533
  O      105.844     615.295      44.986
  P      104.838     615.816      43.855
  C      104.149     617.775      45.414
  O      103.713     616.715      44.566
  C      103.273     617.856      46.669
  O      103.436     616.714      47.520
  C      103.578     619.075      47.535
  O      102.953     620.224      46.985
  C      102.985     618.656      48.877
  O      101.566     618.918      48.934
  C      103.246     617.140      48.902
  N      104.764     615.229      53.345
  C      103.505     615.656      52.942
  N      102.505     615.528      53.850
  N      103.246     616.149      51.771
  C      104.345     616.214      50.961
  C      105.634     615.791      51.237
  C      105.897     615.249      52.553
  O      106.977     614.833      52.950
  N      106.454     615.962      50.157
  C      105.699     616.596      49.272
  N      104.392     616.720      49.696
  O      104.051     614.490      43.415
  O      105.530     616.459      42.699
  H      101.091     618.246      48.419
  H      104.321     614.231      42.509
  H      104.898     614.852      54.277
  H      106.033     616.956      48.314
  H      102.388     616.587      49.291
  H      103.436     619.197      49.706
  H      102.631     615.155      54.783
  H      104.666     619.215      47.622
  H      101.581     615.828      53.574
  H      102.223     617.889      46.324
  H      104.109     618.723      44.875
  H      105.197     617.609      45.675
  P      103.594     621.659      47.322
  C      101.708     623.029      48.465
  O      102.428     622.738      47.272
  O      104.473     621.977      46.020
  O      104.444     621.677      48.551
  H      105.346     622.323      46.276
  H      101.361     624.057      48.431
  H      102.331     622.884      49.351
  H      100.835     622.363      48.532
  H      107.645     614.386      45.377
  H      107.617     615.397      43.953
  H      106.833     613.836      43.931

 3  4  5  6  7  8  9  10  11  12  23  26  30  31 0
 6-311+G(2d,p)
 ****
 33  35  36  37  38 0
 6-311+G(2d,p)
 ****
 1  2  13  14  15  16  17  18  19  20  21  22  24  25 0
 3-21G
 ****
 27  28  29  32  34  39  40  41  42  43  44  45  46  47  48  49 0
 3-21G
 ****


