%nproc=1
%NoSave
%Mem=1900MB
#P OB98/GEN NMR

erre ene a

0 1
  C      214.899     349.661    -409.741
  O      213.902     349.852    -410.726
  H      215.240     350.647    -409.398
  H      215.757     349.120    -410.152
  H      214.489     349.119    -408.886
  P      213.423     348.574    -411.572
  C      211.546     347.907    -409.920
  O      212.808     347.551    -410.493
  C      210.438     346.970    -410.395
  O      210.874     345.597    -410.292
  C      209.169     347.051    -409.565
  O      208.459     348.262    -409.713
  C      208.482     345.732    -409.889
  O      207.685     345.775    -411.062
  C      209.693     344.789    -410.120
  N      209.851     343.827    -409.031
  C      208.951     342.766    -409.024
  O      208.052     342.637    -409.855
  N      209.086     341.868    -408.001
  C      209.987     341.965    -406.973
  O      210.027     341.149    -406.056
  C      210.896     343.121    -407.025
  C      210.783     343.988    -408.033
  O      214.463     347.956    -412.462
  O      212.134     349.094    -412.358
  H      207.433     344.852    -411.278
  H      211.908     348.493    -413.105
  H      208.450     341.093    -407.984
  H      211.619     343.227    -406.215
  H      211.449     344.850    -408.087
  H      209.566     344.223    -411.053
  H      207.831     345.405    -409.075
  H      209.456     346.993    -408.509
  H      210.240     347.187    -411.455
  H      211.319     348.934    -410.241
  H      211.630     347.892    -408.825
  P      207.948     349.140    -408.476
  C      210.038     350.671    -408.376
  O      209.239     349.716    -407.711
  O      206.817     348.585    -407.677
  O      207.397     350.456    -409.230
  H      206.628     350.791    -408.730
  H      210.853     350.956    -407.744
  H      209.447     351.533    -408.606
  H      210.420     350.248    -409.282

 6  7  8  9  10  11  12  13  14  15  16  26  31  32  33  34  35 0
 6-311+G(2d,p)
 ****
 36  37 0
 6-311+G(2d,p)
 ****
 1  2  3  4  5  17  18  19  20  21  22  23  24  25 0
 3-21G
 ****
 27  28  29  30  38  39  40  41  42  43  44  45 0
 3-21G
 ****


