%nproc=1
%NoSave
%Mem=1900MB
#P OB98/GEN NMR

erre ene a

0 1
  C      143.004      14.236     -53.931
  O      141.800      14.934     -54.172
  H      143.807      14.963     -53.776
  H      143.256      13.612     -54.792
  H      142.912      13.616     -53.035
  P      140.474      14.053     -54.403
  C      139.131      14.321     -52.187
  O      139.338      14.776     -53.520
  C      138.771      15.496     -51.272
  O      139.948      16.316     -51.063
  C      137.668      16.394     -51.841
  O      136.749      16.736     -50.801
  C      138.411      17.627     -52.333
  O      137.580      18.787     -52.345
  C      139.605      17.681     -51.373
  N      140.744      18.392     -51.957
  C      140.612      19.776     -52.110
  O      139.568      20.340     -51.768
  N      141.633      20.478     -52.692
  C      142.676      19.847     -53.142
  N      143.648      20.601     -53.729
  C      142.839      18.383     -53.045
  C      141.847      17.725     -52.446
  O      140.789      12.713     -53.590
  O      140.101      13.825     -55.830
  H      138.031      19.477     -52.883
  H      140.151      11.994     -53.816
  H      143.717      17.901     -53.451
  H      141.879      16.646     -52.332
  H      139.326      18.178     -50.431
  H      138.763      17.453     -53.357
  H      137.117      15.925     -52.658
  H      138.489      15.095     -50.290
  H      143.498      21.599     -53.786
  H      140.046      13.843     -51.829
  H      144.489      20.214     -54.138
  H      138.316      13.588     -52.182
  P      135.195      16.502     -51.130
  C      135.174      13.931     -51.487
  O      134.815      15.019     -50.644
  O      135.162      16.402     -52.728
  O      134.303      17.582     -50.611
  H      134.883      17.252     -53.117
  H      134.860      13.012     -51.037
  H      136.236      13.918     -51.620
  H      134.697      14.044     -52.438

 6  7  8  9  10  11  12  13  14  15  16  26  30  31  32  33  35 0
 6-311+G(2d,p)
 ****
 37  38 0
 6-311+G(2d,p)
 ****
 1  2  3  4  5  17  18  19  20  21  22  23  24  25 0
 3-21G
 ****
 27  28  29  34  36  39  40  41  42  43  44  45  46 0
 3-21G
 ****


