%nproc=1
%NoSave
%Mem=1900MB
#P OB98/GEN NMR

erre ene a

0 1
  C     -177.396     392.931    -187.690
  O     -176.982     394.048    -186.889
  P     -177.173     395.580    -187.340
  C     -177.952     396.264    -184.975
  O     -177.066     396.535    -186.052
  C     -177.648     397.136    -183.755
  O     -176.637     396.494    -182.915
  C     -177.131     398.551    -184.087
  O     -177.719     399.439    -183.137
  C     -175.630     398.400    -183.866
  O     -174.954     399.633    -183.700
  C     -175.642     397.499    -182.624
  N     -174.362     396.879    -182.281
  C     -173.292     397.727    -181.969
  O     -173.400     398.958    -182.034
  N     -172.094     397.165    -181.606
  C     -171.963     395.878    -181.562
  N     -170.751     395.381    -181.185
  C     -173.060     394.949    -181.904
  C     -174.216     395.510    -182.247
  O     -178.413     395.812    -188.148
  O     -175.869     395.938    -188.201
  H     -176.118     396.544    -188.925
  H     -173.995     399.461    -183.734
  H     -172.911     393.877    -181.849
  H     -175.080     394.891    -182.486
  H     -176.010     398.077    -181.767
  H     -175.196     397.892    -184.727
  H     -177.399     398.890    -185.094
  H     -178.557     397.200    -183.148
  H     -170.029     396.055    -180.942
  H     -177.845     395.211    -184.699
  H     -170.550     394.393    -181.104
  H     -178.983     396.428    -185.317
  P     -177.909     400.986    -183.504
  C     -179.989     401.219    -181.945
  O     -178.696     401.684    -182.288
  O     -179.043     400.921    -184.630
  O     -176.697     401.700    -184.026
  H     -178.970     401.707    -185.213
  H     -180.057     401.136    -180.853
  H     -180.216     400.250    -182.390
  H     -180.730     401.953    -182.287
  H     -177.164     392.020    -187.179
  H     -176.882     392.955    -188.628
  H     -178.451     392.985    -187.860

 3  4  5  6  7  8  9  10  11  12  13  24  27  28  29  30  32 0
 6-311+G(2d,p)
 ****
 34  35 0
 6-311+G(2d,p)
 ****
 1  2  14  15  16  17  18  19  20  21  22  23  25  26 0
 3-21G
 ****
 31  33  36  37  38  39  40  41  42  43  44  45  46 0
 3-21G
 ****


