%nproc=1
%NoSave
%Mem=1900MB
#P OB98/GEN NMR

erre ene a

0 1
  C      134.099     400.484    1759.880
  O      135.147     399.625    1760.316
  P      136.697     399.899    1759.985
  C      137.477     400.191    1762.453
  O      137.339     400.822    1761.161
  C      138.117     401.176    1763.464
  O      137.284     402.350    1763.647
  C      138.328     400.597    1764.858
  O      139.429     399.703    1764.881
  C      138.462     401.853    1765.690
  O      139.841     402.354    1765.609
  C      137.498     402.836    1764.984
  N      136.241     402.965    1765.737
  C      136.366     403.406    1767.061
  O      137.468     403.584    1767.572
  N      135.181     403.605    1767.774
  C      134.053     403.330    1767.257
  N      132.940     403.553    1768.019
  C      133.876     402.809    1765.888
  C      135.011     402.640    1765.200
  O      136.951     400.413    1758.599
  O      137.431     398.487    1760.208
  H      139.838     403.230    1766.083
  H      138.207     398.423    1759.593
  H      132.920     402.545    1765.473
  H      134.990     402.264    1764.167
  H      137.959     403.819    1764.885
  H      138.260     401.693    1766.760
  H      137.408     400.052    1765.184
  H      139.084     401.517    1763.053
  H      133.080     403.930    1768.945
  H      138.123     399.329    1762.332
  H      131.998     403.369    1767.679
  H      136.469     399.866    1762.820
  P      139.254     398.164    1764.395
  C      141.036     398.436    1762.538
  O      139.710     398.087    1762.849
  O      137.915     397.535    1764.701
  O      140.454     397.399    1765.143
  H      140.178     396.489    1765.329
  H      141.311     397.983    1761.584
  H      141.720     398.082    1763.340
  H      141.130     399.526    1762.467
  H      133.159     400.100    1760.218
  H      134.100     400.534    1758.811
  H      134.250     401.464    1760.283

 3  4  5  6  7  8  9  10  11  12  13  23  27  28  29  30  32 0
 6-311+G(2d,p)
 ****
 34  35 0
 6-311+G(2d,p)
 ****
 1  2  14  15  16  17  18  19  20  21  22  24  25  26 0
 3-21G
 ****
 31  33  36  37  38  39  40  41  42  43  44  45  46 0
 3-21G
 ****


