%nproc=1
%NoSave
%Mem=1900MB
#P OB98/GEN NMR

erre ene a

0 1
  C     -912.156     676.896    -899.010
  O     -913.273     676.053    -899.190
  H     -911.840     677.292    -900.000
  H     -911.312     676.328    -898.590
  H     -912.420     677.731    -898.360
  P     -913.789     675.273    -897.900
  C     -912.846     673.194    -896.610
  O     -912.820     674.008    -897.800
  C     -912.074     671.892    -896.830
  O     -910.722     672.197    -897.280
  C     -911.914     671.017    -895.590
  O     -913.114     670.291    -895.260
  C     -910.791     670.133    -896.060
  O     -911.295     669.158    -897.000
  C     -909.857     671.122    -896.750
  N     -908.842     671.705    -895.840
  C     -907.839     670.854    -895.410
  O     -907.806     669.680    -895.760
  N     -906.906     671.338    -894.540
  C     -906.928     672.582    -894.160
  N     -905.982     673.010    -893.270
  C     -907.974     673.530    -894.610
  C     -908.898     673.015    -895.450
  O     -915.190     674.624    -898.360
  O     -913.879     676.102    -896.630
  H     -910.531     668.637    -897.310
  H     -915.526     674.018    -897.670
  H     -907.978     674.559    -894.240
  H     -909.697     673.700    -895.820
  H     -909.352     670.696    -897.610
  H     -910.340     669.582    -895.240
  H     -911.582     671.618    -894.750
  H     -912.561     671.345    -897.660
  H     -905.330     672.328    -892.920
  H     -913.897     672.961    -896.380
  H     -906.010     673.903    -892.810
  H     -912.405     673.759    -895.770
  P     -913.366     669.986    -893.710
  C     -911.755     668.891    -891.980
  O     -912.300     668.864    -893.270
  O     -914.768     669.177    -893.740
  O     -913.401     671.212    -892.830
  H     -915.269     669.400    -892.930
  H     -911.071     668.076    -891.865
  H     -912.541     668.802    -891.259
  H     -911.237     669.816    -891.831

 6  7  8  9  10  11  12  13  14  15  16  26  30  31  32  33  35 0
 6-311+G(2d,p)
 ****
 37  38 0
 6-311+G(2d,p)
 ****
 1  2  3  4  5  17  18  19  20  21  22  23  24  25 0
 3-21G
 ****
 27  28  29  34  36  39  40  41  42  43  44  45  46 0
 3-21G
 ****


