%nproc=1
%NoSave
%Mem=1900MB
#P OB98/GEN NMR

erre ene a

0 1
  C     -116.934      10.045     165.455
  O     -116.151      10.245     166.615
  H     -116.580       9.148     164.941
  H     -116.840      10.900     164.781
  H     -117.984       9.905     165.733
  P     -116.442      11.585     167.455
  C     -116.353      14.098     166.763
  O     -115.986      12.760     166.458
  C     -115.382      15.069     166.096
  O     -114.088      15.016     166.738
  C     -115.112      14.783     164.620
  O     -116.158      15.210     163.763
  C     -113.848      15.601     164.424
  O     -114.186      17.001     164.359
  C     -113.080      15.271     165.720
  N     -112.188      14.113     165.578
  C     -111.096      14.265     164.718
  O     -110.911      15.321     164.115
  N     -110.253      13.195     164.527
  C     -110.465      12.081     165.156
  N     -109.596      11.057     164.925
  C     -111.595      11.882     166.082
  C     -112.406      12.927     166.246
  O     -115.282      11.590     168.558
  O     -117.821      11.726     168.006
  H     -113.369      17.472     164.113
  H     -115.279      12.454     169.040
  H     -111.739      10.930     166.573
  H     -113.259      12.855     166.911
  H     -112.484      16.130     166.056
  H     -113.316      15.362     163.503
  H     -114.877      13.724     164.452
  H     -115.778      16.085     166.237
  H     -108.868      11.204     164.239
  H     -116.323      14.224     167.851
  H     -109.762      10.112     165.247
  H     -117.367      14.301     166.407
  P     -116.633      14.187     162.617
  C     -115.559      13.218     160.450
  O     -115.496      14.192     161.488
  O     -117.848      14.957     161.924
  O     -117.036      12.830     163.113
  H     -118.533      14.331     161.621
  H     -114.734      13.355     159.782
  H     -116.477      13.330     159.911
  H     -115.513      12.238     160.877

 6  7  8  9  10  11  12  13  14  15  16  26  30  31  32  33  35 0
 6-311+G(2d,p)
 ****
 37  38 0
 6-311+G(2d,p)
 ****
 1  2  3  4  5  17  18  19  20  21  22  23  24  25 0
 3-21G
 ****
 27  28  29  34  36  39  40  41  42  43  44  45  46 0
 3-21G
 ****


