%nproc=1
%NoSave
%Mem=1900MB
#P OB98/GEN NMR

erre ene a

0 1
  C     -825.794     306.332     479.145
  O     -824.786     305.824     479.997
  H     -826.647     305.651     479.162
  H     -825.420     306.404     478.119
  H     -826.122     307.317     479.494
  P     -823.418     306.661     480.057
  C     -821.076     306.438     478.969
  O     -822.418     305.971     479.011
  C     -820.156     305.366     478.391
  O     -819.863     304.356     479.384
  C     -820.716     304.639     477.177
  O     -820.478     305.379     475.991
  C     -819.927     303.337     477.223
  O     -818.606     303.509     476.669
  C     -819.855     303.057     478.728
  N     -821.552     298.326     479.218
  C     -820.448     298.810     478.550
  N     -819.686     297.902     477.889
  N     -820.111     300.073     478.523
  C     -820.989     300.872     479.174
  C     -822.120     300.516     479.870
  C     -822.448     299.105     479.939
  O     -823.368     298.606     480.582
  N     -822.739     301.615     480.415
  C     -821.996     302.635     480.014
  N     -820.930     302.235     479.260
  O     -822.796     306.259     481.479
  O     -823.564     308.140     479.937
  H     -818.683     303.823     475.753
  H     -822.372     307.046     481.873
  H     -821.744     297.340     479.231
  H     -822.191     303.671     480.257
  H     -818.919     302.563     479.010
  H     -820.406     302.559     476.626
  H     -820.047     296.996     477.639
  H     -821.783     304.424     477.304
  H     -818.921     298.270     477.339
  H     -819.200     305.852     478.145
  H     -820.757     306.689     479.985
  H     -821.027     307.337     478.350
  P     -821.591     305.328     474.836
  C     -821.918     304.065     472.592
  O     -821.156     304.191     473.782
  O     -821.331     306.694     474.036
  O     -822.997     305.251     475.324
  H     -822.036     307.338     474.250
  H     -821.516     303.275     471.993
  H     -821.879     304.984     472.045
  H     -822.934     303.841     472.841

 6  7  8  9  10  11  12  13  14  15  26  29  33  34 0
 6-311+G(2d,p)
 ****
 36  38  39  40  41 0
 6-311+G(2d,p)
 ****
 1  2  3  4  5  16  17  18  19  20  21  22  23  24  25 0
 3-21G
 ****
 27  28  30  31  32  35  37  42  43  44  45  46  47 0
 3-21G
 ****
 48  49 0
 3-21G
 ****


