%nproc=1
%NoSave
%Mem=1900MB
#P OB98/GEN NMR

erre ene a

0 1
  C      908.898    -147.723    1447.537
  O      907.461    -147.577    1447.668
  P      906.635    -146.388    1446.944
  C      905.386    -145.433    1448.992
  O      905.288    -146.130    1447.731
  C      904.048    -144.847    1449.428
  O      903.680    -143.724    1448.594
  C      902.865    -145.830    1449.358
  O      902.891    -146.777    1450.410
  C      901.684    -144.853    1449.368
  O      901.356    -144.472    1450.725
  C      902.240    -143.661    1448.575
  N      901.733    -143.619    1447.196
  C      900.382    -143.304    1447.055
  O      899.662    -143.126    1448.036
  N      899.871    -143.228    1445.752
  C      900.636    -143.511    1444.731
  N      900.076    -143.384    1443.505
  C      902.038    -143.940    1444.870
  C      902.534    -143.945    1446.112
  O      906.458    -146.605    1445.458
  O      907.495    -145.057    1447.208
  H      902.190    -144.159    1451.128
  H      907.387    -144.458    1446.458
  H      902.647    -144.168    1443.984
  H      903.564    -144.253    1446.309
  H      901.963    -142.715    1449.061
  H      900.779    -145.279    1448.938
  H      902.892    -146.340    1448.384
  H      904.158    -144.503    1450.476
  H      899.101    -143.098    1443.445
  H      906.128    -144.620    1448.876
  H      900.590    -143.575    1442.651
  H      905.761    -146.132    1449.748
  P      903.575    -148.189    1450.196
  C      901.416    -149.459    1449.617
  O      902.482    -149.330    1450.531
  O      904.914    -148.407    1450.846
  O      903.697    -148.318    1448.573
  H      904.485    -148.851    1448.362
  H      900.950    -150.431    1449.750
  H      901.703    -149.304    1448.589
  H      900.636    -148.687    1449.883
  H      909.223    -148.574    1448.099
  H      909.381    -146.844    1447.909
  H      909.150    -147.859    1446.506

 3  4  5  6  7  8  9  10  11  12  13  23  27  28  29  30  32 0
 6-311+G(2d,p)
 ****
 34  35 0
 6-311+G(2d,p)
 ****
 1  2  14  15  16  17  18  19  20  21  22  24  25  26 0
 3-21G
 ****
 31  33  36  37  38  39  40  41  42  43  44  45  46 0
 3-21G
 ****


