%nproc=1
%NoSave
%Mem=1900MB
#P OB98/GEN NMR

erre ene a

0 1
  C       14.096       9.500     -62.420
  O       14.218       8.326     -63.206
  P       12.955       7.338     -63.275
  C       11.651       6.094     -61.357
  O       12.873       6.633     -61.838
  C       11.928       5.048     -60.273
  O       12.692       3.956     -60.827
  C       12.745       5.558     -59.093
  O       11.960       6.337     -58.204
  C       13.262       4.250     -58.504
  O       12.248       3.631     -57.696
  C       13.517       3.411     -59.774
  N       14.925       3.375     -60.169
  C       15.726       2.454     -59.501
  O       15.302       1.701     -58.626
  N       17.048       2.442     -59.863
  C       17.645       3.283     -60.758
  O       18.841       3.258     -61.013
  C       16.752       4.256     -61.408
  C       15.455       4.258     -61.088
  O       13.522       6.206     -64.253
  O       11.709       8.011     -63.739
  H       14.492       6.139     -64.205
  H       12.091       4.233     -56.941
  H       17.645       1.766     -59.410
  H       17.191       4.947     -62.115
  H       14.786       4.974     -61.549
  H       13.175       2.380     -59.621
  H       14.146       4.392     -57.872
  H       13.591       6.156     -59.455
  H       10.964       4.650     -59.929
  H       11.117       5.629     -62.188
  H       11.037       6.907     -60.957
  P       12.654       7.663     -57.606
  C       14.818       7.984     -56.177
  O       13.733       7.159     -56.536
  O       11.463       8.261     -56.719
  O       13.174       8.592     -58.654
  H       10.986       7.580     -56.216
  H       15.216       7.644     -55.217
  H       14.511       9.030     -56.081
  H       15.603       7.904     -56.933
  H       15.008      10.057     -62.468
  H       13.896       9.230     -61.404
  H       13.292      10.098     -62.795

 3  4  5  6  7  8  9  10  11  12  13  24  28  29  30  31  32 0
 6-311+G(2d,p)
 ****
 33  34 0
 6-311+G(2d,p)
 ****
 1  2  14  15  16  17  18  19  20  21  22  23  25  26  27 0
 3-21G
 ****
 35  36  37  38  39  40  41  42  43  44  45 0
 3-21G
 ****


