%nproc=1
%NoSave
%Mem=1900MB
#P OB98/GEN NMR

erre ene a

0 1
  C     -118.691    -284.479     266.734
  O     -119.322    -284.624     267.988
  H     -119.446    -284.582     265.949
  H     -117.944    -285.266     266.605
  H     -118.216    -283.500     266.636
  P     -118.574    -284.079     269.293
  C     -117.689    -286.266     270.343
  O     -117.362    -285.080     269.632
  C     -116.463    -286.872     271.028
  O     -115.467    -287.205     270.036
  C     -115.800    -285.899     272.009
  O     -116.344    -285.922     273.319
  C     -114.353    -286.386     272.007
  O     -114.150    -287.418     272.988
  C     -114.167    -286.947     270.591
  N     -111.111    -286.411     266.527
  C     -111.504    -287.571     267.173
  N     -110.979    -288.719     266.689
  N     -112.312    -287.585     268.198
  C     -112.673    -286.355     268.629
  C     -112.331    -285.134     268.085
  C     -111.490    -285.130     266.904
  O     -111.129    -284.131     266.286
  N     -112.848    -284.092     268.814
  C     -113.424    -284.680     269.846
  N     -113.411    -286.055     269.732
  O     -119.616    -284.391     270.476
  O     -118.221    -282.622     269.273
  H     -113.200    -287.643     272.996
  H     -119.529    -283.715     271.171
  H     -110.509    -286.465     265.726
  H     -113.903    -284.168     270.671
  H     -113.634    -287.905     270.609
  H     -113.666    -285.574     272.258
  H     -110.289    -288.758     265.960
  H     -115.816    -284.878     271.613
  H     -111.091    -289.572     267.247
  H     -116.748    -287.810     271.526
  H     -118.091    -286.967     269.609
  H     -118.477    -286.065     271.074
  P     -116.054    -284.736     274.348
  C     -114.403    -286.022     275.938
  O     -114.624    -284.979     275.009
  O     -117.068    -285.040     275.545
  O     -116.227    -283.357     273.807
  H     -117.872    -284.488     275.469
  H     -113.381    -286.007     276.255
  H     -114.619    -286.963     275.476
  H     -115.041    -285.886     276.786

 6  7  8  9  10  11  12  13  14  15  26  29  33  34 0
 6-311+G(2d,p)
 ****
 36  38  39  40  41 0
 6-311+G(2d,p)
 ****
 1  2  3  4  5  16  17  18  19  20  21  22  23  24  25 0
 3-21G
 ****
 27  28  30  31  32  35  37  42  43  44  45  46  47 0
 3-21G
 ****
 48  49 0
 3-21G
 ****


