%nproc=1
%NoSave
%Mem=1900MB
#P OB98/GEN NMR

erre ene a

0 1
  C      -35.504       9.624     -26.347
  O      -36.879       9.755     -26.050
  H      -35.063       8.899     -25.657
  H      -34.996      10.583     -26.221
  H      -35.373       9.263     -27.370
  P      -37.708      10.822     -26.915
  C      -37.863      12.337     -24.810
  O      -37.529      12.240     -26.188
  C      -37.417      13.691     -24.270
  O      -36.004      13.876     -24.512
  C      -38.101      14.880     -24.931
  O      -39.410      15.093     -24.432
  C      -37.142      16.002     -24.568
  O      -37.409      16.519     -23.254
  C      -35.769      15.295     -24.617
  N      -35.017      15.639     -25.818
  C      -34.298      16.829     -25.760
  O      -34.284      17.560     -24.771
  N      -33.621      17.175     -26.897
  C      -33.624      16.481     -28.072
  O      -33.054      16.883     -29.079
  C      -34.390      15.224     -28.071
  C      -35.049      14.870     -26.964
  O      -39.230      10.427     -26.613
  O      -37.405      10.823     -28.376
  H      -39.602       9.935     -27.368
  H      -36.656      17.101     -23.033
  H      -33.103      18.039     -26.878
  H      -34.408      14.645     -28.986
  H      -35.637      13.958     -26.946
  H      -35.164      15.579     -23.746
  H      -37.225      16.840     -25.260
  H      -38.105      14.757     -26.021
  H      -37.583      13.704     -23.184
  H      -37.351      11.544     -24.254
  H      -38.944      12.207     -24.695
  P      -40.591      15.375     -25.479
  C      -39.821      17.846     -25.924
  O      -40.078      16.553     -26.439
  O      -41.675      16.079     -24.540
  O      -41.069      14.153     -26.188
  H      -41.276      16.644     -23.855
  H      -39.490      18.486     -26.715
  H      -39.062      17.786     -25.172
  H      -40.717      18.244     -25.495

 6  7  8  9  10  11  12  13  14  15  16  27  31  32  33  34  35 0
 6-311+G(2d,p)
 ****
 36  37 0
 6-311+G(2d,p)
 ****
 1  2  3  4  5  17  18  19  20  21  22  23  24  25 0
 3-21G
 ****
 26  28  29  30  38  39  40  41  42  43  44  45 0
 3-21G
 ****


