%nproc=1
%NoSave
%Mem=1900MB
#P OB98/GEN NMR

erre ene a

0 1
  C       -7.738     -14.002    -707.688
  O       -8.807     -13.794    -706.784
  H       -7.018     -13.183    -707.595
  H       -7.235     -14.938    -707.430
  H       -8.101     -14.072    -708.715
  P       -9.867     -12.646    -707.153
  C      -11.151     -12.579    -709.409
  O      -10.889     -13.296    -708.211
  C      -11.672     -13.520    -710.493
  O      -10.723     -14.614    -710.649
  C      -13.051     -14.137    -710.191
  O      -13.801     -14.202    -711.413
  C      -12.709     -15.553    -709.743
  O      -13.776     -16.469    -709.952
  C      -11.472     -15.848    -710.587
  N      -11.474     -20.830    -709.584
  C      -12.242     -20.081    -710.405
  N      -12.137     -18.749    -710.659
  C      -11.078     -18.229    -710.013
  C      -10.207     -18.869    -709.149
  C      -10.451     -20.242    -708.922
  N       -9.716     -21.002    -708.044
  N       -9.282     -17.974    -708.644
  C       -9.606     -16.810    -709.172
  N      -10.687     -16.911    -710.000
  O       -8.984     -11.644    -708.047
  O      -10.496     -11.952    -705.990
  H      -14.601     -16.085    -709.593
  H       -8.537     -11.000    -707.466
  H      -13.045     -20.602    -710.916
  H       -9.118     -15.871    -708.958
  H      -11.729     -16.143    -711.614
  H      -12.455     -15.546    -708.672
  H      -13.629     -13.588    -709.432
  H      -11.698     -12.980    -711.444
  H      -10.225     -12.113    -709.757
  H      -10.037     -21.945    -707.867
  H       -9.025     -20.556    -707.462
  H      -11.888     -11.790    -709.202
  P      -14.852     -13.023    -711.695
  C      -14.702     -10.609    -710.727
  O      -14.093     -11.616    -711.531
  O      -15.818     -13.072    -710.423
  O      -15.613     -13.190    -712.974
  H      -16.721     -12.816    -710.669
  H      -14.081      -9.738    -710.715
  H      -14.823     -10.974    -709.729
  H      -15.660     -10.359    -711.133

 6  7  8  9  10  11  12  13  14  15  25  28  32  33  34  35 0
 6-311+G(2d,p)
 ****
 36  39  40 0
 6-311+G(2d,p)
 ****
 1  2  3  4  5  16  17  18  19  20  21  22  23  24 0
 3-21G
 ****
 26  27  29  30  31  37  38  41  42  43  44  45  46  47 0
 3-21G
 ****
 48 0
 3-21G
 ****


