%nproc=1
%NoSave
%Mem=1900MB
#P OB98/GEN NMR

erre ene a

0 1
  C      163.823     401.750      17.949
  O      164.594     402.434      18.954
  P      163.953     403.715      19.685
  C      164.240     405.485      17.789
  O      163.352     404.735      18.606
  C      163.582     406.785      17.294
  O      164.577     407.623      16.630
  C      162.433     406.578      16.298
  O      161.486     407.636      16.522
  C      163.119     406.759      14.955
  O      162.222     407.056      13.901
  C      164.083     407.904      15.301
  N      165.192     408.057      14.356
  C      165.275     409.249      13.637
  O      164.446     410.152      13.697
  N      166.358     409.362      12.799
  C      167.316     408.415      12.584
  O      168.243     408.568      11.795
  C      167.159     407.168      13.349
  C      166.126     407.050      14.181
  O      165.260     404.489      20.195
  O      163.051     403.407      20.837
  H      162.746     407.153      13.081
  H      165.135     404.772      21.123
  H      166.441     410.223      12.284
  H      167.899     406.392      13.208
  H      165.998     406.145      14.768
  H      163.527     408.848      15.359
  H      163.654     405.839      14.692
  H      161.944     405.601      16.407
  H      163.235     407.345      18.172
  H      164.533     404.879      16.925
  H      165.144     405.716      18.367
  P      159.954     407.248      16.788
  C      158.891     408.057      14.539
  O      159.272     406.977      15.362
  O      159.365     408.679      17.217
  O      159.753     406.195      17.834
  H      159.661     409.391      16.626
  H      159.644     408.854      14.549
  H      157.930     408.457      14.878
  H      158.780     407.698      13.513
  H      164.389     400.927      17.564
  H      163.593     402.428      17.153
  H      162.914     401.387      18.382

 3  4  5  6  7  8  9  10  11  12  13  23  28  29  30  31  32 0
 6-311+G(2d,p)
 ****
 33  34 0
 6-311+G(2d,p)
 ****
 1  2  14  15  16  17  18  19  20  21  22  24  25  26 0
 3-21G
 ****
 27  35  36  37  38  39  40  41  42  43  44  45 0
 3-21G
 ****


