%nproc=1
%NoSave
%Mem=1900MB
#P OB98/GEN NMR

erre ene a

0 1
  C      355.628    -276.465      40.618
  O      355.875    -276.574      39.232
  P      355.530    -275.351      38.260
  C      357.057    -273.348      38.771
  O      356.883    -274.533      37.997
  C      358.166    -272.486      38.179
  O      359.451    -273.110      38.379
  C      358.047    -272.269      36.674
  O      357.050    -271.313      36.379
  C      359.466    -271.834      36.327
  O      359.655    -270.441      36.607
  C      360.302    -272.694      37.285
  N      363.506    -274.272      33.642
  C      363.016    -273.052      33.942
  N      362.132    -272.716      34.909
  C      361.738    -273.809      35.583
  C      362.122    -275.124      35.370
  C      363.070    -275.342      34.358
  N      363.623    -276.573      34.080
  N      361.469    -275.967      36.248
  C      360.704    -275.177      36.971
  N      360.881    -273.861      36.648
  O      354.359    -274.520      38.669
  O      355.257    -276.054      36.847
  H      359.137    -269.939      35.950
  H      354.344    -275.866      36.560
  H      363.389    -272.237      33.336
  H      360.018    -275.506      37.745
  H      361.128    -272.125      37.730
  H      359.707    -271.990      35.268
  H      357.829    -273.222      36.179
  H      358.170    -271.523      38.707
  H      357.318    -273.639      39.795
  H      364.398    -276.592      33.436
  H      363.548    -277.303      34.785
  H      356.114    -272.791      38.793
  P      356.284    -271.368      34.974
  C      354.946    -273.449      35.647
  O      354.881    -272.100      35.234
  O      357.078    -271.899      33.826
  O      355.847    -269.845      34.723
  H      355.844    -269.666      33.766
  H      355.154    -274.088      34.784
  H      353.979    -273.731      36.077
  H      355.725    -273.589      36.403
  H      355.919    -277.373      41.105
  H      354.585    -276.291      40.782
  H      356.193    -275.649      41.018

 3  4  5  6  7  8  9  10  11  12  22  25  29  30  31  32 0
 6-311+G(2d,p)
 ****
 33  36  37 0
 6-311+G(2d,p)
 ****
 1  2  13  14  15  16  17  18  19  20  21  23  24  26 0
 3-21G
 ****
 27  28  34  35  38  39  40  41  42  43  44  45  46  47  48 0
 3-21G
 ****


