%nproc=1
%NoSave
%Mem=1900MB
#P OB98/GEN NMR

erre ene a

0 1
  C      145.522    -930.552     873.989
  O      145.548    -930.305     872.580
  P      144.205    -929.746     871.908
  C      145.052    -927.300     871.628
  O      144.103    -928.177     872.216
  C      144.877    -925.878     872.165
  O      144.933    -925.824     873.608
  C      145.960    -924.919     871.701
  O      145.753    -924.541     870.344
  C      145.781    -923.780     872.696
  O      144.656    -922.939     872.311
  C      145.435    -924.532     873.992
  N      147.888    -922.694     878.100
  C      146.742    -922.282     877.466
  N      146.177    -922.827     876.381
  C      146.858    -923.898     875.950
  C      148.032    -924.417     876.485
  C      148.537    -923.767     877.614
  N      149.706    -924.161     878.251
  N      148.451    -925.523     875.758
  C      147.582    -925.659     874.791
  N      146.600    -924.707     874.861
  O      143.055    -930.396     872.809
  O      144.053    -930.121     870.458
  H      143.884    -923.550     872.189
  H      142.583    -931.090     872.318
  H      146.250    -921.423     877.908
  H      147.619    -926.403     874.010
  H      144.657    -924.026     874.571
  H      146.658    -923.139     872.754
  H      146.945    -925.360     871.812
  H      143.884    -925.519     871.839
  H      144.947    -927.307     870.539
  H      150.055    -923.578     879.017
  H      150.259    -924.900     877.844
  H      146.070    -927.677     871.854
  P      146.304    -925.532     869.192
  C      143.876    -926.116     868.537
  O      145.113    -926.618     869.021
  O      147.411    -926.370     869.996
  O      146.757    -924.856     867.954
  H      147.099    -926.659     870.881
  H      143.181    -926.959     868.430
  H      144.013    -925.676     867.549
  H      143.454    -925.379     869.241
  H      146.476    -930.920     874.304
  H      144.769    -931.279     874.210
  H      145.302    -929.642     874.507

 3  4  5  6  7  8  9  10  11  12  22  25  29  30  31  32 0
 6-311+G(2d,p)
 ****
 33  36  37 0
 6-311+G(2d,p)
 ****
 1  2  13  14  15  16  17  18  19  20  21  23  24  26 0
 3-21G
 ****
 27  28  34  35  38  39  40  41  42  43  44  45  46  47  48 0
 3-21G
 ****


