%nproc=1
%NoSave
%Mem=1900MB
#P OB98/GEN NMR

erre ene a

0 1
  C      -89.012    -366.489    -126.345
  O      -88.132    -367.034    -125.376
  H      -88.603    -366.684    -127.341
  H      -89.101    -365.409    -126.205
  H      -90.000    -366.958    -126.269
  P      -88.638    -367.015    -123.853
  C      -86.634    -366.158    -122.376
  O      -87.338    -367.263    -122.928
  C      -85.530    -366.663    -121.439
  O      -86.061    -367.163    -120.210
  C      -84.734    -367.840    -121.994
  O      -83.879    -367.465    -123.057
  C      -84.002    -368.286    -120.748
  O      -82.869    -367.460    -120.475
  C      -85.101    -368.101    -119.655
  N      -85.715    -369.360    -119.258
  C      -84.965    -370.128    -118.359
  O      -83.882    -369.741    -117.950
  N      -85.483    -371.356    -117.976
  C      -86.634    -371.743    -118.417
  N      -87.075    -372.965    -118.000
  C      -87.465    -370.946    -119.347
  C      -86.929    -369.781    -119.728
  O      -89.423    -368.390    -123.729
  O      -89.416    -365.810    -123.458
  H      -82.207    -367.655    -121.175
  H      -88.917    -369.172    -124.008
  H      -88.427    -371.304    -119.687
  H      -87.479    -369.142    -120.408
  H      -84.665    -367.625    -118.762
  H      -83.634    -369.316    -120.842
  H      -85.419    -368.638    -122.302
  H      -84.875    -365.814    -121.204
  H      -86.473    -373.491    -117.375
  H      -87.314    -365.486    -121.836
  H      -87.937    -373.398    -118.312
  H      -86.196    -365.597    -123.204
  P      -83.929    -368.254    -124.461
  C      -81.455    -368.911    -124.122
  O      -82.415    -368.311    -124.998
  O      -84.931    -367.732    -125.450
  O      -84.196    -369.771    -124.028
  H      -83.510    -370.162    -123.436
  H      -80.490    -368.892    -124.584
  H      -81.736    -369.924    -123.925
  H      -81.421    -368.365    -123.202

 6  7  8  9  10  11  12  13  14  15  16  26  30  31  32  33  35 0
 6-311+G(2d,p)
 ****
 37  38 0
 6-311+G(2d,p)
 ****
 1  2  3  4  5  17  18  19  20  21  22  23  24  25 0
 3-21G
 ****
 27  28  29  34  36  39  40  41  42  43  44  45  46 0
 3-21G
 ****


