%nproc=1
%NoSave
%Mem=1900MB
#P OB98/GEN NMR

erre ene a

0 1
  C       -3.504      33.112     -70.002
  O       -4.415      33.841     -69.177
  P       -4.787      35.350     -69.556
  C       -3.597      37.644     -69.670
  O       -3.563      36.311     -69.174
  C       -2.578      38.509     -68.922
  O       -2.889      38.592     -67.510
  C       -1.166      37.940     -68.974
  O       -0.512      37.972     -70.225
  C       -0.488      38.651     -67.815
  O       -0.033      39.950     -68.190
  C       -1.646      38.753     -66.794
  N       -1.528      37.780     -65.708
  C       -0.602      38.083     -64.715
  O        0.121      39.076     -64.744
  N       -0.505      37.175     -63.694
  C       -1.203      36.007     -63.591
  O       -1.060      35.219     -62.665
  C       -2.149      35.731     -64.683
  C       -2.267      36.615     -65.676
  O       -6.129      35.820     -69.106
  O       -4.717      35.335     -71.164
  H        0.677      39.832     -68.849
  H       -5.465      35.867     -71.499
  H        0.156      37.381     -62.961
  H       -2.717      34.812     -64.637
  H       -2.960      36.431     -66.490
  H       -1.671      39.754     -66.343
  H        0.385      38.097     -67.457
  H       -1.223      36.876     -68.700
  H       -2.617      39.522     -69.327
  H       -4.601      38.056     -69.554
  H       -3.391      37.628     -70.746
  P       -0.375      36.692     -71.179
  C        0.453      34.246     -70.950
  O        0.341      35.519     -70.354
  O        0.089      36.925     -72.578
  O       -1.896      36.171     -71.229
  H       -2.058      35.777     -72.107
  H        0.948      33.573     -70.244
  H        1.053      34.301     -71.861
  H       -0.537      33.843     -71.179
  H       -3.371      32.128     -69.604
  H       -2.561      33.618     -70.025
  H       -3.897      33.045     -70.995

 3  4  5  6  7  8  9  10  11  12  13  23  28  29  30  31  32 0
 6-311+G(2d,p)
 ****
 33  34 0
 6-311+G(2d,p)
 ****
 1  2  14  15  16  17  18  19  20  21  22  24  25  26  27 0
 3-21G
 ****
 35  36  37  38  39  40  41  42  43  44  45 0
 3-21G
 ****


