%nproc=1
%NoSave
%Mem=1900MB
#P OB98/GEN NMR

erre ene a

0 1
  C     -517.137     132.072    -129.821
  O     -515.903     131.504    -129.443
  H     -517.431     131.666    -130.795
  H     -517.039     133.161    -129.913
  H     -517.912     131.832    -129.091
  P     -515.314     131.946    -128.015
  C     -514.321     134.141    -127.028
  O     -514.889     133.487    -128.160
  C     -513.536     135.363    -127.480
  O     -512.377     134.938    -128.236
  C     -514.307     136.298    -128.403
  O     -515.198     137.136    -127.686
  C     -513.169     137.058    -129.076
  O     -512.710     138.145    -128.265
  C     -512.072     135.990    -129.185
  N     -509.842     136.527    -133.737
  C     -509.690     137.195    -132.573
  N     -510.313     136.976    -131.394
  C     -511.161     135.939    -131.495
  C     -511.430     135.169    -132.615
  C     -510.718     135.497    -133.785
  N     -510.902     134.846    -134.983
  N     -512.398     134.226    -132.343
  C     -512.703     134.415    -131.074
  N     -511.983     135.436    -130.521
  O     -513.913     131.169    -127.950
  O     -516.183     131.628    -126.844
  H     -511.909     138.497    -128.697
  H     -514.026     130.326    -127.473
  H     -508.976     138.013    -132.586
  H     -513.442     133.851    -130.514
  H     -511.084     136.381    -128.926
  H     -513.482     137.475    -130.038
  H     -514.847     135.719    -129.165
  H     -513.181     135.902    -126.593
  H     -513.647     133.446    -126.514
  H     -515.131     134.427    -126.344
  H     -510.376     135.148    -135.785
  H     -511.628     134.147    -135.050
  P     -516.375     137.861    -128.487
  C     -516.964     140.397    -128.435
  O     -515.975     139.409    -128.655
  O     -517.578     137.894    -127.435
  O     -516.770     137.189    -129.771
  H     -518.212     137.180    -127.623
  H     -516.539     141.367    -128.586
  H     -517.328     140.320    -127.432
  H     -517.773     140.251    -129.121

 6  7  8  9  10  11  12  13  14  15  25  28  32  33  34  35 0
 6-311+G(2d,p)
 ****
 36  37  40 0
 6-311+G(2d,p)
 ****
 1  2  3  4  5  16  17  18  19  20  21  22  23  24 0
 3-21G
 ****
 26  27  29  30  31  38  39 41  42  43  44  45  46  47  48 0
 3-21G
 ****


