%nproc=1
%NoSave
%Mem=1900MB
#P OB98/GEN NMR

erre ene a

0 1
  C     -365.138      92.209      91.606
  O     -364.943      90.827      91.830
  H     -365.048      92.733      92.560
  H     -366.139      92.386      91.202
  H     -364.385      92.601      90.918
  P     -364.842      89.846      90.568
  C     -367.057      88.528      90.754
  O     -366.344      89.558      90.083
  C     -368.517      88.484      90.284
  O     -368.536      88.488      88.825
  C     -369.292      87.232      90.744
  O     -370.668      87.616      90.879
  C     -369.087      86.316      89.549
  O     -369.918      85.186      89.584
  C     -369.297      87.332      88.418
  N     -368.885      86.884      87.091
  C     -369.721      85.997      86.421
  O     -370.786      85.564      86.862
  N     -369.291      85.596      85.181
  C     -368.144      86.001      84.561
  O     -367.827      85.633      83.437
  C     -367.300      86.930      85.323
  C     -367.705      87.331      86.533
  O     -363.995      88.632      90.754
  O     -364.270      90.787      89.404
  H     -363.317      90.617      89.284
  H     -369.816      84.688      88.745
  H     -369.885      84.957      84.679
  H     -366.377      87.259      84.864
  H     -367.108      88.025      87.113
  H     -370.351      87.635      88.381
  H     -368.062      85.933      89.544
  H     -368.931      86.829      91.693
  H     -369.020      89.404      90.612
  H     -367.022      88.734      91.830
  H     -366.570      87.567      90.557
  P     -371.292      88.201      92.235
  C     -372.055      85.837      92.970
  O     -371.337      87.015      93.318
  O     -372.606      88.892      92.052
  O     -370.188      89.211      92.811
  H     -370.620      89.889      93.363
  H     -372.003      85.136      93.777
  H     -371.624      85.403      92.092
  H     -373.078      86.086      92.780

 6  7  8  9  10  11  12  13  14  15  16  27  31  32  33  34  35 0
 6-311+G(2d,p)
 ****
 36  37 0
 6-311+G(2d,p)
 ****
 1  2  3  4  5  17  18  19  20  21  22  23  24  25 0
 3-21G
 ****
 26  28  29  30  38  39  40  41  42  43  44  45 0
 3-21G
 ****


