%nproc=1
%NoSave
%Mem=1900MB
#P OB98/GEN NMR

erre ene a

0 1
  C      724.513     481.561     559.770
  O      723.331     480.776     559.746
  P      723.452     479.281     559.171
  C      722.977     478.162     556.852
  O      723.183     479.381     557.581
  C      722.958     478.424     555.353
  O      721.739     479.142     554.994
  C      724.152     479.218     554.839
  O      724.526     478.703     553.556
  C      723.613     480.609     554.654
  O      724.348     481.370     553.699
  C      722.150     480.305     554.257
  N      721.253     481.443     554.499
  C      721.358     482.533     553.638
  O      722.245     482.558     552.768
  N      720.519     483.607     553.798
  C      719.700     483.623     554.826
  N      718.875     484.701     554.937
  C      719.621     482.533     555.819
  C      720.406     481.493     555.574
  O      722.130     478.573     559.727
  O      724.692     478.556     559.569
  H      723.903     482.238     553.586
  H      722.287     477.628     559.899
  H      718.959     482.618     556.663
  H      720.420     480.629     556.236
  H      722.094     480.069     553.168
  H      723.622     481.162     555.604
  H      725.018     479.176     555.508
  H      722.899     477.449     554.834
  H      718.954     485.439     554.247
  H      722.010     477.753     557.146
  H      718.213     484.800     555.696
  H      723.745     477.457     557.123
  P      726.086     478.717     553.163
  C      727.463     480.092     551.474
  O      726.273     480.006     552.247
  O      726.140     477.534     552.058
  O      727.087     478.473     554.249
  H      727.060     477.399     551.776
  H      727.396     480.946     550.810
  H      727.586     479.169     550.871
  H      728.326     480.202     552.138
  H      724.292     482.527     560.173
  H      724.890     481.668     558.774
  H      725.248     481.080     560.380

 3  4  5  6  7  8  9  10  11  12  13  21  23  27  28  29  30  32 0
 6-311+G(2d,p)
 ****
 34  35 0
 6-311+G(2d,p)
 ****
 1  2  14  15  16  17  18  19  20  22  24  25  26 0
 3-21G
 ****
 31  33  36  37  38  39  40  41  42  43  44  45  46 0
 3-21G
 ****


