%nproc=1
%NoSave
%Mem=1900MB
#P OB98/GEN NMR

erre ene a

0 1
  C       47.136    -133.369     -12.879
  O       48.387    -134.040     -13.035
  P       49.655    -133.110     -13.363
  C       49.914    -132.714     -10.810
  O       50.559    -133.021     -12.039
  C       50.895    -132.832      -9.644
  O       50.513    -132.014      -8.520
  C       51.024    -134.250      -9.102
  O       51.878    -135.012      -9.936
  C       51.605    -134.000      -7.716
  O       53.038    -133.852      -7.767
  C       50.941    -132.676      -7.303
  N       48.917    -131.104      -2.928
  C       50.165    -130.854      -3.469
  N       50.979    -130.050      -2.751
  N       50.573    -131.347      -4.608
  C       49.655    -132.132      -5.217
  C       48.378    -132.431      -4.796
  C       47.937    -131.882      -3.530
  O       46.837    -132.056      -3.022
  N       47.718    -133.212      -5.711
  C       48.640    -133.484      -6.617
  N       49.811    -132.802      -6.399
  O       49.015    -131.650     -13.496
  O       50.379    -133.509     -14.606
  H       53.386    -133.813      -6.856
  H       49.045    -131.359     -14.428
  H       48.655    -130.707      -2.040
  H       48.501    -134.143      -7.461
  H       51.657    -132.008      -6.807
  H       51.408    -134.835      -7.036
  H       50.727    -129.635      -1.867
  H       50.033    -134.713      -9.017
  H       51.894    -129.847      -3.134
  H       51.875    -132.482     -10.000
  H       49.070    -133.386     -10.652
  H       49.503    -131.700     -10.874
  P       51.405    -136.489     -10.342
  C       49.702    -135.796     -12.177
  O       50.925    -136.436     -11.869
  O       50.043    -136.673      -9.517
  O       52.384    -137.567     -10.014
  H       50.026    -137.561      -9.112
  H       49.762    -135.383     -13.187
  H       49.479    -134.985     -11.475
  H       48.892    -136.532     -12.143
  H       46.371    -134.086     -12.665
  H       46.895    -132.849     -13.783
  H       47.205    -132.669     -12.073

 3  4  5  6  7  8  9  10  11  12  23  26  30  31 0
 6-311+G(2d,p)
 ****
 33  35  36  37  38 0
 6-311+G(2d,p)
 ****
 1  2  13  14  15  16  17  18  19  20  21  22  24  25 0
 3-21G
 ****
 27  28  29  32  34  39  40  41  42  43  44  45  46  47  48  49 0
 3-21G
 ****


