%nproc=1
%NoSave
%Mem=1900MB
#P OB98/GEN NMR

erre ene a

0 1
  C       22.506     121.411      13.827
  O       21.982     122.713      14.008
  H       21.680     120.728      13.617
  H       23.017     121.079      14.735
  H       23.197     121.400      12.980
  P       23.037     123.868      14.363
  C       25.290     123.385      15.542
  O       23.874     123.278      15.598
  C       25.916     122.871      16.836
  O       25.587     121.485      17.032
  C       27.436     122.959      16.876
  O       27.848     124.260      17.263
  C       27.757     121.932      17.952
  O       27.569     122.521      19.253
  C       26.697     120.844      17.711
  N       27.584     115.788      17.697
  C       27.314     116.648      18.703
  N       27.145     117.986      18.643
  C       27.268     118.426      17.379
  C       27.543     117.666      16.252
  C       27.699     116.284      16.444
  N       27.975     115.410      15.415
  N       27.601     118.461      15.127
  C       27.305     119.669      15.559
  N       27.131     119.708      16.920
  O       22.464     125.232      14.548
  O       24.069     123.724      13.147
  H       28.151     123.302      19.297
  H       24.229     122.786      12.945
  H       27.227     116.203      19.689
  H       27.185     120.544      14.930
  H       26.313     120.437      18.654
  H       28.791     121.586      17.906
  H       27.887     122.642      15.930
  H       25.472     123.431      17.670
  H       25.584     124.428      15.378
  H       28.260     114.477      15.668
  H       28.188     115.800      14.509
  H       25.634     122.791      14.690
  P       29.383     124.711      17.150
  C       31.467     123.508      18.054
  O       30.134     123.921      18.326
  O       29.594     126.184      17.118
  O       29.913     123.979      15.831
  H       30.745     124.393      15.532
  H       31.862     122.995      18.906
  H       32.070     124.366      17.843
  H       31.472     122.852      17.208

 6  7  8  9  10  11  12  13  14  15  25  28  32  33  34  35 0
 6-311+G(2d,p)
 ****
 36  39  40 0
 6-311+G(2d,p)
 ****
 1  2  3  4  5  16  17  18  19  20  21  22  23  24 0
 3-21G
 ****
 26  27  29  30  31  37  38  41  42  43  44  45  46  47 0
 3-21G
 ****
 48 0
 3-21G
 ****


