%nproc=1
%NoSave
%Mem=1900MB
#P OB98/GEN NMR

erre ene a

0 1
  C     -307.258     141.561      85.176
  O     -307.364     141.514      86.591
  P     -306.201     140.765      87.402
  C     -305.341     138.322      87.600
  O     -306.273     139.213      87.004
  C     -305.243     137.019      86.803
  O     -305.017     137.342      85.402
  C     -304.108     136.080      87.245
  O     -304.585     134.739      87.069
  C     -303.013     136.414      86.246
  O     -301.984     135.440      86.174
  C     -303.844     136.605      84.983
  N     -300.785     136.113      80.914
  C     -301.385     135.196      81.704
  N     -302.194     135.402      82.768
  C     -302.372     136.718      82.980
  C     -301.811     137.768      82.269
  C     -300.982     137.425      81.188
  N     -300.361     138.366      80.391
  N     -302.200     138.984      82.799
  C     -302.982     138.673      83.814
  N     -303.135     137.316      83.948
  O     -306.739     140.787      88.908
  O     -304.842     141.390      87.282
  H     -302.331     134.621      85.764
  H     -306.013     140.940      89.542
  H     -301.195     134.158      81.453
  H     -303.450     139.384      84.484
  H     -304.178     135.648      84.566
  H     -302.536     137.358      86.544
  H     -303.814     136.219      88.293
  H     -306.210     136.501      86.866
  H     -305.671     138.077      88.618
  H     -299.636     138.021      79.776
  H     -300.346     139.320      80.728
  H     -304.363     138.812      87.674
  P     -303.807     133.535      87.792
  C     -301.724     132.273      86.982
  O     -302.364     133.532      87.087
  O     -304.510     132.270      87.103
  O     -303.848     133.540      89.282
  H     -304.509     132.349      86.134
  H     -300.805     132.398      86.399
  H     -302.376     131.558      86.469
  H     -301.460     131.902      87.974
  H     -308.098     142.088      84.773
  H     -307.241     140.565      84.786
  H     -306.355     142.066      84.903

 3  4  5  6  7  8  9  10  11  12  22  25  29  30  31  32 0
 6-311+G(2d,p)
 ****
 33  36  37 0
 6-311+G(2d,p)
 ****
 1  2  13  14  15  16  17  18  19  20  21  23  24  26 0
 3-21G
 ****
 27  28  34  35  38  39  40  41  42  43  44  45  46  47  48 0
 3-21G
 ****


