%nproc=1
%NoSave
%Mem=1900MB
#P OB98/GEN NMR

erre ene a

0 1
  C       31.992       4.131      34.998
  O       32.501       3.392      36.088
  H       31.874       5.172      35.308
  H       31.017       3.744      34.694
  H       32.688       4.095      34.155
  P       32.706       1.812      35.919
  C       34.083       0.435      34.226
  O       34.025       1.610      35.028
  C       35.254      -0.449      34.669
  O       36.476       0.301      34.462
  C       35.170      -0.835      36.153
  O       35.267      -2.241      36.372
  C       36.220       0.055      36.806
  O       36.764      -0.456      38.005
  C       37.240       0.269      35.682
  N       38.032       1.488      35.826
  C       39.206       1.402      36.568
  O       39.640       0.378      37.091
  N       39.911       2.571      36.695
  C       39.564       3.781      36.176
  O       40.240       4.793      36.319
  C       38.303       3.813      35.421
  C       37.604       2.683      35.284
  O       31.512       1.052      35.448
  O       33.176       1.325      37.371
  H       37.439       0.179      38.320
  H       32.427       0.902      37.831
  H       40.769       2.518      37.222
  H       37.991       4.760      35.003
  H       36.670       2.671      34.731
  H       37.932      -0.571      35.627
  H       35.751       1.016      37.051
  H       34.187      -0.583      36.567
  H       35.294      -1.333      34.022
  H       34.214       0.744      33.185
  H       33.143      -0.121      34.319
  P       34.026      -3.243      36.396
  C       32.438      -4.173      34.530
  O       33.726      -3.701      34.893
  O       32.859      -2.807      37.216
  O       34.635      -4.570      37.083
  H       33.905      -4.983      37.587
  H       32.432      -4.430      33.491
  H       31.713      -3.407      34.712
  H       32.198      -5.038      35.113

 6  7  8  9  10  11  12  13  14  15  16  26  31  32  33  34  35 0
 6-311+G(2d,p)
 ****
 36  37 0
 6-311+G(2d,p)
 ****
 1  2  3  4  5  17  18  19  20  21  22  23  24  25 0
 3-21G
 ****
 27  28  29  30  38  39  40  41  42  43  44  45 0
 3-21G
 ****


