%nproc=1
%NoSave
%Mem=1900MB
#P OB98/GEN NMR

erre ene a

0 1
  C     -151.814      42.222      16.043
  O     -152.676      43.358      15.934
  P     -153.813      43.317      14.801
  C     -153.948      44.170      12.333
  O     -153.163      43.999      13.500
  C     -153.208      45.027      11.300
  O     -152.887      46.329      11.877
  C     -151.902      44.411      10.783
  O     -151.803      44.749       9.393
  C     -150.839      45.144      11.582
  O     -149.572      45.106      10.941
  C     -151.473      46.536      11.682
  N     -150.896      47.344      12.752
  C     -149.649      47.909      12.515
  O     -149.002      47.691      11.494
  N     -149.149      48.698      13.515
  C     -149.728      48.908      14.734
  O     -149.235      49.627      15.596
  C     -150.992      48.193      14.971
  C     -151.506      47.454      13.986
  O     -154.844      44.406      15.348
  O     -154.379      41.951      14.594
  H     -154.414      45.168      15.775
  H     -149.659      45.477      10.040
  H     -148.259      49.145      13.350
  H     -151.451      48.287      15.947
  H     -152.422      46.898      14.134
  H     -151.352      47.080      10.736
  H     -150.742      44.693      12.575
  H     -151.868      43.325      10.905
  H     -153.891      45.207      10.459
  H     -154.890      44.663      12.589
  H     -154.204      43.188      11.923
  P     -151.281      43.621       8.371
  C     -148.939      42.566       7.863
  O     -149.683      43.602       8.465
  O     -151.549      44.364       6.973
  O     -151.981      42.306       8.468
  H     -151.232      45.281       6.964
  H     -147.886      42.859       7.836
  H     -149.274      42.381       6.840
  H     -149.033      41.651       8.453
  H     -151.110      42.383      16.832
  H     -151.290      42.082      15.121
  H     -152.397      41.351      16.258

 3  4  5  6  7  8  9  10  11  12  13  24  28  29  30  31  32 0
 6-311+G(2d,p)
 ****
 33  34 0
 6-311+G(2d,p)
 ****
 1  2  14  15  16  17  18  19  20  21  22  23  25  26  27 0
 3-21G
 ****
 35  36  37  38  39  40  41  42  43  44  45 0
 3-21G
 ****


