%nproc=1
%NoSave
%Mem=1900MB
#P OB98/GEN NMR

erre ene a

0 1
  C      744.859     -32.487    -185.724
  O      744.418     -33.242    -186.837
  H      744.826     -31.425    -185.981
  H      745.889     -32.756    -185.472
  H      744.208     -32.663    -184.864
  P      744.349     -34.834    -186.651
  C      746.655     -35.058    -187.836
  O      745.868     -35.355    -186.685
  C      748.056     -35.650    -187.669
  O      748.880     -35.256    -188.793
  C      748.802     -35.157    -186.428
  O      748.373     -35.831    -185.257
  C      750.243     -35.453    -186.810
  O      750.585     -36.817    -186.551
  C      750.242     -35.192    -188.327
  N      754.551     -32.456    -188.279
  C      754.292     -33.744    -187.941
  N      753.115     -34.402    -187.996
  C      752.144     -33.595    -188.478
  C      752.261     -32.270    -188.858
  C      753.537     -31.687    -188.748
  N      753.793     -30.375    -189.056
  N      751.031     -31.774    -189.250
  C      750.196     -32.781    -189.118
  N      750.824     -33.904    -188.665
  O      743.740     -35.331    -188.047
  O      743.541     -35.303    -185.486
  H      750.578     -36.928    -185.578
  H      742.772     -35.435    -187.963
  H      755.138     -34.306    -187.565
  H      749.130     -32.749    -189.334
  H      750.807     -35.956    -188.879
  H      750.937     -34.827    -186.249
  H      748.676     -34.069    -186.319
  H      747.977     -36.738    -187.666
  H      746.734     -33.968    -187.943
  H      746.163     -35.475    -188.718
  H      754.730     -30.020    -188.933
  H      753.023     -29.767    -189.306
  P      748.096     -34.965    -183.929
  C      750.334     -35.572    -182.739
  O      749.530     -34.562    -183.315
  O      747.536     -36.047    -182.892
  O      747.154     -33.823    -184.117
  H      746.559     -35.991    -182.846
  H      751.246     -35.141    -182.381
  H      750.556     -36.315    -183.476
  H      749.809     -36.024    -181.924

 6  7  8  9  10  11  12  13  14  15  25  28  32  33  34  35 0
 6-311+G(2d,p)
 ****
 36  37  40 0
 6-311+G(2d,p)
 ****
 1  2  3  4  5  16  17  18  19  20  21  22  23  24 0
 3-21G
 ****
 26  27  29  30  31  38  39 41  42  43  44  45  46  47  48 0
 3-21G
 ****


