%nproc=1
%NoSave
%Mem=1900MB
#P OB98/GEN NMR

erre ene a

0 1
  C     -325.860    -483.875    -891.650
  O     -324.471    -483.670    -891.520
  H     -326.315    -482.966    -892.070
  H     -326.319    -484.066    -890.670
  H     -326.076    -484.716    -892.320
  P     -323.631    -484.877    -890.880
  C     -321.241    -485.863    -891.240
  O     -322.210    -484.883    -891.630
  C     -320.324    -486.201    -892.420
  O     -321.021    -487.058    -893.370
  C     -319.827    -484.987    -893.210
  O     -318.723    -484.387    -892.570
  C     -319.482    -485.616    -894.540
  O     -318.193    -486.246    -894.490
  C     -320.599    -486.654    -894.700
  N     -323.457    -487.450    -898.800
  C     -322.417    -488.180    -898.300
  N     -321.993    -489.257    -899.030
  N     -321.765    -487.886    -897.190
  C     -322.254    -486.772    -896.590
  C     -323.295    -485.970    -896.980
  C     -324.018    -486.337    -898.190
  O     -324.997    -485.768    -898.650
  N     -323.515    -484.928    -896.100
  C     -322.553    -485.081    -895.190
  N     -321.756    -486.184    -895.450
  O     -324.352    -486.196    -891.460
  O     -323.577    -484.911    -889.390
  H     -317.534    -485.620    -894.130
  H     -324.272    -486.921    -890.830
  H     -323.914    -487.738    -899.650
  H     -322.408    -484.455    -894.330
  H     -320.258    -487.560    -895.220
  H     -319.441    -484.887    -895.330
  H     -322.209    -489.337    -900.000
  H     -320.641    -484.242    -893.350
  H     -321.201    -489.779    -898.680
  H     -319.486    -486.760    -892.020
  H     -321.777    -486.769    -890.920
  H     -320.653    -485.478    -890.400
  P     -318.471    -482.816    -892.790
  C     -317.236    -480.920    -891.500
  O     -317.579    -482.300    -891.550
  O     -319.921    -482.162    -892.480
  O     -317.982    -482.435    -894.150
  H     -319.960    -481.276    -892.850
  H     -316.647    -480.730    -890.627
  H     -318.129    -480.332    -891.463
  H     -316.674    -480.660    -892.373

 6  7  8  9  10  11  12  13  14  15  26  29  33  34 0
 6-311+G(2d,p)
 ****
 36  38  39  40  41 0
 6-311+G(2d,p)
 ****
 1  2  3  4  5  16  17  18  19  20  21  22  23  24  25 0
 3-21G
 ****
 27  28  30  31  32  35  37  42  43  44  45  46  47 0
 3-21G
 ****
 48  49 0
 3-21G
 ****


