%nproc=1
%NoSave
%Mem=1900MB
#P OB98/GEN NMR

erre ene a

0 1
  C       44.508    -263.246     235.577
  O       44.125    -262.496     236.714
  P       45.142    -261.399     237.288
  C       43.261    -259.599     237.384
  O       44.282    -260.303     238.081
  C       42.130    -259.208     238.349
  O       41.355    -260.412     238.678
  C       42.602    -258.595     239.674
  O       41.614    -257.631     240.070
  C       42.570    -259.773     240.620
  O       42.545    -259.400     241.982
  C       41.302    -260.487     240.118
  N       41.202    -261.870     240.583
  C       40.211    -262.168     241.513
  O       39.414    -261.342     241.954
  N       40.189    -263.455     241.965
  C       41.098    -264.430     241.677
  O       41.092    -265.534     242.216
  C       42.140    -264.064     240.695
  C       42.145    -262.823     240.202
  O       45.623    -260.617     235.974
  O       46.290    -261.956     238.053
  H       42.404    -260.209     242.510
  H       46.501    -260.938     235.686
  H       39.465    -263.693     242.633
  H       42.858    -264.818     240.423
  H       42.906    -262.510     239.490
  H       40.413    -259.933     240.444
  H       43.466    -260.389     240.457
  H       43.596    -258.125     239.601
  H       41.443    -258.530     237.824
  H       42.864    -260.231     236.591
  H       43.686    -258.704     236.911
  P       42.143    -256.219     240.642
  C       39.958    -254.968     239.925
  O       40.838    -255.345     240.961
  O       42.731    -255.554     239.308
  O       43.143    -256.348     241.751
  H       42.147    -255.682     238.538
  H       39.888    -255.742     239.155
  H       40.304    -254.038     239.468
  H       38.954    -254.805     240.346
  H       43.726    -263.930     235.321
  H       45.402    -263.792     235.794
  H       44.685    -262.583     234.756

 3  4  5  6  7  8  9  10  11  12  13  23  28  29  30  31  32 0
 6-311+G(2d,p)
 ****
 33  34 0
 6-311+G(2d,p)
 ****
 1  2  14  15  16  17  18  19  20  21  22  24  25  26 0
 3-21G
 ****
 27  35  36  37  38  39  40  41  42  43  44  45 0
 3-21G
 ****


