%nproc=1
%NoSave
%Mem=1900MB
#P OB98/GEN NMR

erre ene a

0 1
  C     -167.122    -323.517     364.564
  O     -167.298    -324.399     365.656
  P     -168.613    -325.312     365.768
  C     -167.518    -327.640     365.596
  O     -168.287    -326.640     364.927
  C     -167.198    -328.800     364.651
  O     -166.383    -328.348     363.552
  C     -166.422    -329.938     365.305
  O     -167.282    -330.737     366.094
  C     -165.849    -330.641     364.078
  O     -166.814    -331.532     363.494
  C     -165.559    -329.456     363.132
  N     -164.142    -329.101     363.110
  C     -163.296    -330.019     362.479
  O     -163.743    -331.067     362.010
  N     -161.945    -329.753     362.432
  C     -161.489    -328.676     362.997
  N     -160.144    -328.468     362.931
  C     -162.344    -327.695     363.698
  C     -163.646    -327.973     363.717
  O     -169.894    -324.629     365.414
  O     -168.562    -325.826     367.284
  H     -167.564    -330.973     363.207
  H     -168.814    -325.106     367.918
  H     -161.914    -326.824     364.158
  H     -164.349    -327.312     364.213
  H     -165.865    -329.699     362.109
  H     -164.968    -331.240     364.327
  H     -165.605    -329.527     365.909
  H     -168.150    -329.169     364.239
  H     -159.587    -329.172     362.467
  H     -168.100    -328.014     366.443
  H     -159.680    -327.682     363.359
  H     -166.596    -327.187     365.982
  P     -167.191    -330.664     367.690
  C     -169.505    -329.672     368.187
  O     -168.107    -329.448     368.184
  O     -165.807    -330.691     368.255
  O     -168.019    -331.955     368.169
  H     -167.524    -332.405     368.881
  H     -169.979    -328.930     368.832
  H     -169.744    -330.673     368.555
  H     -169.894    -329.555     367.166
  H     -166.191    -323.001     364.669
  H     -167.923    -322.808     364.546
  H     -167.119    -324.075     363.651

 3  4  5  6  7  8  9  10  11  12  13  23  27  28  29  30  32 0
 6-311+G(2d,p)
 ****
 34  35 0
 6-311+G(2d,p)
 ****
 1  2  14  15  16  17  18  19  20  21  22  24  25  26 0
 3-21G
 ****
 31  33  36  37  38  39  40  41  42  43  44  45  46 0
 3-21G
 ****


