%nproc=1
%NoSave
%Mem=1900MB
#P OB98/GEN NMR

erre ene a

0 1
  C      629.981     -17.368     459.378
  O      628.974     -17.943     460.191
  H      630.333     -16.444     459.861
  H      629.586     -17.107     458.392
  H      630.826     -18.051     459.278
  P      628.187     -19.220     459.629
  C      628.443     -20.282     461.976
  O      627.560     -19.937     460.917
  C      627.810     -21.357     462.858
  O      627.246     -22.400     462.046
  C      628.807     -22.030     463.781
  O      629.134     -21.202     464.878
  C      628.056     -23.305     464.138
  O      627.074     -23.068     465.148
  C      627.376     -23.641     462.786
  N      628.117     -24.636     462.013
  C      628.207     -25.912     462.579
  O      627.681     -26.150     463.665
  N      628.926     -26.874     461.900
  C      629.476     -26.597     460.763
  N      630.162     -27.593     460.149
  C      629.392     -25.264     460.123
  C      628.703     -24.346     460.798
  O      628.953     -20.140     458.724
  O      626.908     -18.586     458.904
  H      627.571     -22.948     465.982
  H      627.110     -18.391     457.971
  H      629.867     -25.082     459.173
  H      628.598     -23.339     460.395
  H      626.359     -24.020     462.951
  H      628.727     -24.082     464.492
  H      629.714     -22.317     463.228
  H      626.994     -20.897     463.433
  H      630.205     -28.485     460.632
  H      628.614     -19.373     462.556
  H      630.566     -27.519     459.225
  H      629.401     -20.637     461.585
  P      630.622     -20.612     465.037
  C      629.532     -18.813     466.545
  O      630.588     -19.766     466.403
  O      631.149     -19.877     463.843
  O      631.484     -21.905     465.434
  H      631.635     -22.489     464.659
  H      629.621     -18.320     467.490
  H      628.589     -19.315     466.492
  H      629.596     -18.090     465.759

 6  7  8  9  10  11  12  13  14  15  16  26  30  31  32  33  35 0
 6-311+G(2d,p)
 ****
 37  38 0
 6-311+G(2d,p)
 ****
 1  2  3  4  5  17  18  19  20  21  22  23  24  25 0
 3-21G
 ****
 27  28  29  34  36  39  40  41  42  43  44  45  46 0
 3-21G
 ****


