%nproc=1
%NoSave
%Mem=1900MB
#P OB98/GEN NMR

erre ene a

0 1
  C      -49.370     -66.077     -58.880
  O      -48.489     -64.950     -58.867
  P      -49.076     -63.573     -58.286
  C      -46.968     -62.770     -57.014
  O      -47.857     -62.544     -58.098
  C      -45.558     -62.254     -57.331
  O      -44.831     -63.209     -58.158
  C      -45.546     -60.918     -58.079
  O      -44.388     -60.189     -57.651
  C      -45.351     -61.337     -59.523
  O      -44.869     -60.258     -60.322
  C      -44.390     -62.509     -59.340
  N      -41.389     -65.143     -62.521
  C      -41.111     -64.347     -61.467
  N      -41.971     -63.660     -60.682
  C      -43.240     -63.898     -61.056
  C      -43.678     -64.676     -62.114
  C      -42.685     -65.320     -62.873
  N      -42.966     -66.109     -63.964
  N      -45.055     -64.634     -62.210
  C      -45.437     -63.841     -61.229
  N      -44.380     -63.397     -60.486
  O      -49.482     -63.955     -56.786
  O      -50.244     -63.046     -59.051
  H      -44.016     -59.956     -59.946
  H      -50.453     -63.997     -56.705
  H      -40.056     -64.243     -61.223
  H      -46.455     -63.553     -61.019
  H      -43.355     -62.180     -59.179
  H      -46.306     -61.676     -59.945
  H      -46.442     -60.306     -57.938
  H      -45.008     -62.152     -56.388
  H      -46.915     -63.839     -56.789
  H      -42.194     -66.511     -64.472
  H      -43.923     -66.211     -64.264
  H      -47.371     -62.294     -56.115
  P      -44.631     -59.032     -56.570
  C      -42.333     -59.439     -55.437
  O      -43.179     -58.531     -56.117
  O      -45.179     -59.819     -55.289
  O      -45.575     -57.964     -57.020
  H      -45.724     -59.226     -54.738
  H      -41.310     -59.311     -55.804
  H      -42.634     -60.479     -55.590
  H      -42.357     -59.215     -54.368
  H      -48.859     -66.924     -59.288
  H      -50.227     -65.853     -59.481
  H      -49.683     -66.297     -57.881

 3  4  5  6  7  8  9  10  11  12  22  25  29  30  31  32 0
 6-311+G(2d,p)
 ****
 33  36  37 0
 6-311+G(2d,p)
 ****
 1  2  13  14  15  16  17  18  19  20  21  23  24  26 0
 3-21G
 ****
 27  28  34  35  38  39  40  41  42  43  44  45  46  47  48 0
 3-21G
 ****


