%nproc=1
%NoSave
%Mem=1900MB
#P OB98/GEN NMR

erre ene a

0 1
  C      848.914    -498.425     168.693
  O      849.805    -498.001     167.681
  P      851.364    -498.377     167.731
  C      851.218    -499.819     165.604
  O      851.771    -498.655     166.203
  C      850.813    -499.538     164.165
  O      849.574    -498.793     164.170
  C      851.784    -498.679     163.359
  O      852.867    -499.408     162.765
  C      850.871    -498.157     162.259
  O      850.682    -499.178     161.258
  C      849.571    -497.904     163.020
  N      848.917    -493.058     161.502
  C      848.969    -494.235     160.813
  N      849.158    -495.475     161.292
  C      849.284    -495.463     162.627
  C      849.228    -494.350     163.465
  C      849.049    -493.111     162.854
  N      848.970    -491.923     163.552
  N      849.395    -494.736     164.780
  C      849.521    -496.047     164.736
  N      849.442    -496.532     163.461
  O      851.708    -499.456     168.704
  O      852.093    -496.989     168.052
  H      850.082    -498.801     160.583
  H      853.005    -497.154     168.361
  H      848.834    -494.156     159.738
  H      849.674    -496.677     165.597
  H      848.683    -498.156     162.427
  H      851.282    -497.282     161.750
  H      852.173    -497.833     163.948
  H      850.633    -500.496     163.656
  H      850.326    -500.107     166.175
  H      848.699    -491.091     163.032
  H      848.898    -491.970     164.553
  H      851.941    -500.635     165.662
  P      854.280    -498.649     162.646
  C      855.100    -499.344     165.037
  O      855.272    -499.431     163.644
  O      854.218    -497.178     162.850
  O      854.795    -499.087     161.196
  H      855.016    -500.032     161.092
  H      855.757    -500.072     165.520
  H      854.072    -499.570     165.325
  H      855.372    -498.345     165.387
  H      847.929    -498.071     168.472
  H      849.231    -498.031     169.636
  H      848.907    -499.494     168.737

 3  4  5  6  7  8  9  10  11  12  22  25  29  30  31  32 0
 6-311+G(2d,p)
 ****
 33  36  37 0
 6-311+G(2d,p)
 ****
 1  2  13  14  15  16  17  18  19  20  21  23  24  26 0
 3-21G
 ****
 27  28  34  35  38  39  40  41  42  43  44  45  46  47  48 0
 3-21G
 ****


