%nproc=1
%NoSave
%Mem=1900MB
#P OB98/GEN NMR

erre ene a

0 1
  C      991.408    -445.460    1479.297
  O      992.425    -445.501    1478.304
  P      992.552    -444.381    1477.132
  C      995.034    -443.900    1477.669
  O      993.736    -443.345    1477.531
  C      996.076    -442.785    1477.866
  O      995.974    -441.825    1476.783
  C      995.961    -441.985    1479.185
  O      997.313    -441.754    1479.638
  C      995.282    -440.721    1478.740
  O      995.408    -439.648    1479.645
  C      995.943    -440.493    1477.393
  N      995.367    -439.507    1476.489
  C      995.629    -438.173    1476.694
  O      996.287    -437.788    1477.686
  N      995.094    -437.246    1475.853
  C      994.329    -437.576    1474.870
  N      993.840    -436.635    1474.044
  C      994.016    -439.036    1474.593
  C      994.569    -439.921    1475.454
  O      991.267    -443.726    1476.792
  O      993.121    -445.159    1475.860
  H      992.735    -444.799    1475.040
  H      994.888    -438.888    1479.343
  H      993.398    -439.305    1473.747
  H      994.361    -440.979    1475.281
  H      997.010    -440.195    1477.582
  H      994.206    -440.935    1478.618
  H      995.436    -442.527    1479.972
  H      997.082    -443.234    1477.774
  H      994.069    -435.671    1474.251
  H      995.278    -444.472    1476.763
  H      993.252    -436.843    1473.243
  H      995.034    -444.598    1478.547
  P      998.128    -442.886    1480.399
  C      999.864    -443.467    1478.555
  O      998.724    -443.884    1479.289
  O      996.924    -443.777    1481.020
  O      999.032    -442.466    1481.509
  H      997.258    -444.247    1481.801
  H     1000.596    -444.320    1478.509
  H     1000.381    -442.621    1479.009
  H      999.577    -443.204    1477.567
  H      991.521    -446.293    1479.958
  H      990.448    -445.506    1478.827
  H      991.489    -444.550    1479.853

 3  4  5  6  7  8  9  10  11  12  13  24  27  28  29  30  32 0
 6-311+G(2d,p)
 ****
 34  35 0
 6-311+G(2d,p)
 ****
 1  2  14  15  16  17  18  19  20  21  22  23  25  26 0
 3-21G
 ****
 31  33  36  37  38  39  40  41  42  43  44  45  46 0
 3-21G
 ****


