%nproc=1
%NoSave
%Mem=1900MB
#P OB98/GEN NMR

erre ene a

0 1
  C      367.931     742.159      50.996
  O      367.415     742.422      52.288
  P      366.882     741.239      53.215
  C      369.127     740.693      54.471
  O      368.113     740.286      53.575
  C      369.010     739.878      55.764
  O      369.137     738.468      55.478
  C      370.084     740.262      56.768
  O      369.605     741.235      57.682
  C      370.413     738.933      57.427
  O      369.451     738.622      58.453
  C      370.266     737.951      56.242
  N      371.405     737.800      55.311
  C      372.687     737.638      55.819
  O      372.950     737.581      57.015
  N      373.696     737.569      54.888
  C      373.527     737.601      53.537
  O      374.437     737.777      52.730
  C      372.144     737.496      53.063
  C      371.164     737.627      53.956
  O      366.015     740.350      52.201
  O      366.091     741.659      54.417
  H      369.420     739.388      59.056
  H      365.066     740.555      52.298
  H      374.644     737.590      55.249
  H      371.965     737.377      52.001
  H      370.126     737.594      53.631
  H      369.999     736.946      56.586
  H      371.389     738.961      57.921
  H      370.983     740.622      56.252
  H      368.012     740.042      56.194
  H      369.032     741.760      54.685
  H      370.113     740.541      54.016
  P      370.636     742.220      58.402
  C      370.336     744.370      57.046
  O      371.141     743.229      57.252
  O      371.706     741.561      59.197
  O      369.688     743.121      59.330
  H      369.688     742.771      60.249
  H      370.879     745.054      56.376
  H      370.137     744.885      57.982
  H      369.398     744.082      56.556
  H      368.234     743.078      50.539
  H      367.175     741.695      50.398
  H      368.774     741.505      51.075

 3  4  5  6  7  8  9  10  11  12  13  23  28  29  30  31  32 0
 6-311+G(2d,p)
 ****
 33  34 0
 6-311+G(2d,p)
 ****
 1  2  14  15  16  17  18  19  20  21  22  24  25  26  27 0
 3-21G
 ****
 35  36  37  38  39  40  41  42  43  44  45 0
 3-21G
 ****


