%nproc=1
%NoSave
%Mem=1900MB
#P OB98/GEN NMR

erre ene a

0 1
  C     -112.229    -119.679    -121.435
  O     -110.985    -119.089    -121.746
  H     -112.976    -119.315    -122.143
  H     -112.534    -119.389    -120.426
  H     -112.180    -120.769    -121.509
  P     -109.659    -119.664    -121.054
  C     -108.777    -117.261    -120.737
  O     -108.518    -118.554    -121.264
  C     -108.597    -116.187    -121.812
  O     -109.716    -116.262    -122.743
  C     -108.554    -114.753    -121.262
  O     -107.711    -113.986    -122.132
  C     -109.998    -114.321    -121.412
  O     -110.129    -112.918    -121.344
  C     -110.353    -114.969    -122.753
  N     -111.796    -115.067    -122.964
  C     -112.334    -114.266    -123.962
  O     -111.664    -113.478    -124.631
  N     -113.686    -114.359    -124.146
  C     -114.542    -115.115    -123.397
  O     -115.751    -115.136    -123.585
  C     -113.921    -115.910    -122.325
  C     -112.597    -115.854    -122.161
  O     -109.266    -121.046    -121.455
  O     -109.958    -119.561    -119.484
  H     -111.052    -112.653    -121.550
  H     -109.485    -120.270    -119.006
  H     -114.090    -113.792    -124.873
  H     -114.573    -116.513    -121.708
  H     -112.111    -116.427    -121.380
  H     -109.929    -114.392    -123.587
  H     -110.614    -114.744    -120.611
  H     -108.193    -114.698    -120.233
  H     -107.692    -116.415    -122.389
  H     -108.074    -117.085    -119.915
  H     -109.798    -117.225    -120.344
  P     -106.452    -113.153    -121.585
  C     -106.698    -111.195    -123.241
  O     -105.867    -112.259    -122.781
  O     -105.427    -113.984    -120.883
  O     -107.083    -112.072    -120.586
  H     -106.430    -111.835    -119.901
  H     -106.204    -110.674    -124.034
  H     -106.890    -110.518    -122.435
  H     -107.624    -111.595    -123.599

 6  7  8  9  10  11  12  13  14  15  16  26  31  32  33  34  35 0
 6-311+G(2d,p)
 ****
 36  37 0
 6-311+G(2d,p)
 ****
 1  2  3  4  5  17  18  19  20  21  22  23  24  25 0
 3-21G
 ****
 27  28  29  30  38  39  40  41  42  43  44  45 0
 3-21G
 ****


