%nproc=1
%NoSave
%Mem=1900MB
#P OB98/GEN NMR

erre ene a

0 1
  C       -3.739      -4.997      -1.294
  O       -4.516      -5.739      -0.382
  H       -4.391      -4.294      -1.817
  H       -3.291      -5.673      -2.028
  H       -2.952      -4.434      -0.786
  P       -3.780      -6.499       0.817
  C       -3.309      -4.326       2.128
  O       -2.750      -5.474       1.501
  C       -2.879      -4.216       3.591
  O       -3.307      -5.390       4.313
  C       -1.359      -4.128       3.751
  O       -0.834      -2.815       3.665
  C       -1.156      -4.709       5.148
  O       -1.258      -3.690       6.157
  C       -2.303      -5.716       5.284
  N        0.181      -9.722       7.262
  C        0.139      -8.418       7.717
  N        0.881      -8.150       8.813
  N       -0.555      -7.475       7.136
  C       -1.164      -7.872       5.996
  C       -1.177      -9.130       5.436
  C       -0.468     -10.185       6.127
  O       -0.413     -11.358       5.774
  N       -1.870      -9.147       4.250
  C       -2.198      -7.886       4.054
  N       -1.862      -7.090       5.124
  O       -2.798      -7.520       0.063
  O       -4.678      -7.234       1.764
  H       -1.159      -4.119       7.029
  H       -2.684      -8.322       0.604
  H        0.709     -10.410       7.768
  H       -2.717      -7.503       3.183
  H       -2.779      -5.648       6.270
  H       -0.160      -5.149       5.246
  H        1.498      -8.814       9.248
  H       -0.856      -4.782       3.034
  H        1.028      -7.171       9.067
  H       -3.381      -3.356       4.051
  H       -4.392      -4.434       2.064
  H       -3.035      -3.422       1.579
  P        0.689      -2.566       3.250
  C        0.381      -2.634       0.644
  O        0.931      -3.207       1.810
  O        1.494      -3.541       4.229
  O        1.160      -1.153       3.355
  H        1.848      -3.048       4.992
  H        0.664      -3.217      -0.207
  H        0.748      -1.635       0.530
  H       -0.686      -2.615       0.725

 6  7  8  9  10  11  12  13  14  15  26  29  33  34 0
 6-311+G(2d,p)
 ****
 36  38  39  40  41 0
 6-311+G(2d,p)
 ****
 1  2  3  4  5  16  17  18  19  20  21  22  23  24  25 0
 3-21G
 ****
 27  28  30  31  32  35  37  42  43  44  45  46  47 0
 3-21G
 ****
 48  49 0
 3-21G
 ****


