%nproc=1
%NoSave
%Mem=1900MB
#P OB98/GEN NMR

erre ene a

0 1
  C      -74.413    -765.706     260.336
  O      -74.557    -764.375     260.790
  H      -74.345    -766.371     261.194
  H      -73.498    -765.808     259.743
  H      -75.279    -765.995     259.726
  P      -74.559    -763.226     259.667
  C      -76.185    -761.226     259.229
  O      -75.942    -762.445     259.927
  C      -77.667    -760.858     259.321
  O      -78.464    -761.745     258.514
  C      -78.263    -760.961     260.732
  O      -77.909    -759.869     261.564
  C      -79.736    -760.965     260.385
  O      -80.160    -759.647     260.018
  C      -79.752    -761.922     259.166
  N      -79.967    -763.325     259.536
  C      -81.227    -763.655     260.053
  O      -82.097    -762.789     260.177
  N      -81.455    -764.962     260.436
  C      -80.525    -765.852     260.300
  N      -80.812    -767.124     260.706
  C      -79.188    -765.547     259.751
  C      -78.970    -764.282     259.385
  O      -74.867    -764.034     258.311
  O      -73.344    -762.363     259.606
  H      -81.138    -759.643     260.066
  H      -75.028    -763.392     257.573
  H      -78.447    -766.328     259.676
  H      -78.024    -763.993     258.968
  H      -80.523    -761.627     258.442
  H      -80.378    -761.294     261.216
  H      -78.000    -761.909     261.211
  H      -77.783    -759.850     258.914
  H      -81.713    -767.288     261.138
  H      -75.887    -761.364     258.178
  H      -80.120    -767.851     260.778
  H      -75.582    -760.414     259.658
  P      -78.656    -759.760     262.981
  C      -78.113    -758.513     265.207
  O      -77.619    -759.081     264.002
  O      -78.711    -761.277     263.483
  O      -80.024    -759.134     262.934
  H      -79.525    -761.459     263.997
  H      -77.299    -758.106     265.769
  H      -78.602    -759.270     265.784
  H      -78.810    -757.735     264.975

 6  7  8  9  10  11  12  13  14  15  16  26  30  31  32  33  35 0
 6-311+G(2d,p)
 ****
 37  38 0
 6-311+G(2d,p)
 ****
 1  2  3  4  5  17  18  19  20  21  22  23  24  25 0
 3-21G
 ****
 27  28  29  34  36  39  40  41  42  43  44  45  46 0
 3-21G
 ****


