%nproc=1
%NoSave
%Mem=1900MB
#P OB98/GEN NMR

erre ene a

0 1
  C     -473.203    -374.308    -252.756
  O     -472.318    -374.938    -251.854
  H     -472.967    -373.242    -252.791
  H     -474.236    -374.424    -252.415
  H     -473.095    -374.725    -253.763
  P     -472.359    -376.534    -251.712
  C     -469.913    -376.841    -250.961
  O     -471.283    -376.933    -250.588
  C     -469.043    -376.769    -249.708
  O     -469.319    -375.559    -248.974
  C     -469.273    -377.914    -248.729
  O     -468.662    -379.103    -249.192
  C     -468.662    -377.324    -247.465
  O     -467.231    -377.429    -247.484
  C     -469.101    -375.843    -247.570
  N     -470.298    -375.546    -246.776
  C     -470.069    -375.093    -245.484
  O     -468.943    -374.941    -245.003
  N     -471.190    -374.850    -244.730
  C     -472.477    -375.110    -245.110
  O     -473.428    -375.094    -244.339
  C     -472.657    -375.514    -246.515
  C     -471.571    -375.726    -247.265
  O     -472.255    -377.301    -252.988
  O     -473.759    -376.808    -250.979
  H     -474.418    -377.099    -251.635
  H     -467.018    -378.378    -247.568
  H     -471.038    -374.570    -243.771
  H     -473.666    -375.669    -246.875
  H     -471.680    -376.055    -248.292
  H     -468.292    -375.178    -247.236
  H     -469.004    -377.832    -246.561
  H     -470.344    -378.062    -248.569
  H     -467.988    -376.735    -250.028
  H     -469.773    -375.931    -251.555
  H     -469.647    -377.712    -251.568
  P     -469.488    -380.472    -249.297
  C     -468.609    -381.445    -251.496
  O     -468.585    -381.539    -250.082
  O     -470.877    -380.330    -249.821
  O     -469.499    -381.040    -247.796
  H     -470.421    -381.222    -247.529
  H     -467.976    -382.199    -251.914
  H     -468.259    -380.479    -251.795
  H     -469.610    -381.586    -251.846

 6  7  8  9  10  11  12  13  14  15  16  27  31  32  33  34  35 0
 6-311+G(2d,p)
 ****
 36  37 0
 6-311+G(2d,p)
 ****
 1  2  3  4  5  17  18  19  20  21  22  23  24  25 0
 3-21G
 ****
 26  28  29  30  38  39  40  41  42  43  44  45 0
 3-21G
 ****


