%nproc=1
%NoSave
%Mem=1900MB
#P OB98/GEN NMR

erre ene a

0 1
  C      549.981     589.736     230.099
  O      548.927     590.006     229.182
  P      547.728     591.027     229.458
  C      547.199     593.420     228.535
  O      548.169     592.476     228.949
  C      547.801     594.633     227.805
  O      548.835     595.235     228.631
  C      548.490     594.187     226.508
  O      547.729     594.013     225.328
  C      549.658     595.146     226.350
  O      549.348     596.267     225.517
  C      549.943     595.607     227.778
  N      554.979     596.250     228.444
  C      554.076     597.042     227.758
  N      554.582     598.128     227.126
  N      552.797     596.794     227.687
  C      552.439     595.638     228.290
  C      553.238     594.759     228.978
  C      554.644     595.079     229.101
  O      555.481     594.414     229.712
  N      552.524     593.682     229.435
  C      551.299     593.889     229.005
  N      551.191     595.073     228.306
  O      547.113     590.946     230.813
  O      546.600     590.573     228.391
  H      548.471     596.593     225.771
  H      545.737     590.749     228.806
  H      555.946     596.509     228.489
  H      550.451     593.237     229.165
  H      550.020     596.696     227.836
  H      550.509     594.636     225.869
  H      555.571     598.308     227.046
  H      548.935     593.210     226.702
  H      553.971     598.581     226.449
  H      547.052     595.408     227.648
  H      546.666     593.749     229.435
  H      546.460     592.940     227.895
  P      547.356     592.607     224.646
  C      546.635     590.337     225.586
  O      546.523     591.743     225.701
  O      548.756     591.831     224.581
  O      546.745     592.709     223.285
  H      548.705     591.083     223.957
  H      545.807     589.869     226.131
  H      547.580     589.999     226.014
  H      546.585     590.025     224.533
  H      550.650     589.018     229.672
  H      549.572     589.346     231.008
  H      550.513     590.641     230.307

 3  4  5  6  7  8  9  10  11  12  23  26  30  31 0
 6-311+G(2d,p)
 ****
 33  35  36  37  38 0
 6-311+G(2d,p)
 ****
 1  2  13  14  15  16  17  18  19  20  21  22  24  25 0
 3-21G
 ****
 27  28  29  32  34  39  40  41  42  43  44  45  46  47  48  49 0
 3-21G
 ****


