%nproc=1
%NoSave
%Mem=1900MB
#P OB98/GEN NMR

erre ene a

0 1
  C      -28.090    -107.396    -169.736
  O      -26.749    -107.633    -169.355
  H      -28.594    -106.858    -168.929
  H      -28.603    -108.348    -169.900
  H      -28.128    -106.789    -170.646
  P      -25.780    -108.256    -170.474
  C      -24.208    -106.222    -169.943
  O      -24.338    -107.606    -170.209
  C      -22.761    -105.877    -169.581
  O      -22.433    -106.517    -168.322
  C      -21.740    -106.340    -170.622
  O      -20.688    -105.376    -170.682
  C      -21.202    -107.633    -170.031
  O      -19.912    -107.959    -170.539
  C      -21.253    -107.320    -168.527
  N      -21.274    -108.528    -167.707
  C      -20.084    -109.259    -167.634
  O      -19.088    -108.885    -168.253
  N      -20.060    -110.416    -166.898
  C      -21.146    -110.844    -166.337
  N      -21.063    -112.011    -165.644
  C      -22.435    -110.131    -166.424
  C      -22.425    -108.988    -167.109
  O      -26.292    -107.518    -171.798
  O      -25.803    -109.746    -170.550
  H      -19.309    -107.202    -170.370
  H      -26.443    -106.566    -171.677
  H      -23.317    -110.533    -165.948
  H      -23.324    -108.394    -167.217
  H      -20.384    -106.718    -168.231
  H      -21.876    -108.464    -170.268
  H      -22.177    -106.475    -171.612
  H      -22.693    -104.796    -169.415
  H      -20.165    -112.480    -165.628
  H      -24.867    -105.929    -169.120
  H      -21.855    -112.466    -165.215
  H      -24.517    -105.674    -170.839
  P      -20.096    -104.944    -172.105
  C      -19.706    -102.427    -171.655
  O      -19.112    -103.694    -171.913
  O      -21.092    -104.807    -173.206
  O      -19.069    -106.137    -172.434
  H      -19.154    -106.350    -173.384
  H      -18.939    -101.688    -171.549
  H      -20.279    -102.479    -170.753
  H      -20.347    -102.161    -172.469

 6  7  8  9  10  11  12  13  14  15  16  26  30  31  32  33  35 0
 6-311+G(2d,p)
 ****
 37  38 0
 6-311+G(2d,p)
 ****
 1  2  3  4  5  17  18  19  20  21  22  23  24  25 0
 3-21G
 ****
 27  28  29  34  36  39  40  41  42  43  44  45  46 0
 3-21G
 ****


