%nproc=1
%NoSave
%Mem=1900MB
#P OB98/GEN NMR

erre ene a

0 1
  C      156.069      67.805    -121.468
  O      156.696      68.557    -122.500
  P      156.978      67.810    -123.895
  C      154.895      68.737    -125.166
  O      155.553      67.596    -124.602
  C      155.004      68.693    -126.690
  O      154.700      67.373    -127.196
  C      154.040      69.634    -127.400
  O      154.510      70.976    -127.442
  C      154.024      69.031    -128.804
  O      155.199      69.456    -129.536
  C      154.101      67.525    -128.503
  N      150.828      64.893    -131.344
  C      152.160      65.217    -131.586
  N      152.666      64.826    -132.787
  N      152.925      65.854    -130.742
  C      152.277      66.185    -129.584
  C      150.966      65.917    -129.238
  C      150.132      65.221    -130.186
  O      148.945      64.954    -130.056
  N      150.686      66.392    -127.976
  C      151.803      66.945    -127.580
  N      152.797      66.892    -128.534
  O      157.383      66.322    -123.453
  O      158.029      68.442    -124.746
  H      155.172      70.434    -129.531
  H      157.838      65.863    -124.179
  H      150.298      64.403    -132.038
  H      151.951      67.422    -126.618
  H      154.757      66.998    -129.218
  H      153.151      69.332    -129.389
  H      152.114      64.403    -133.506
  H      153.022      69.563    -126.972
  H      153.607      65.118    -133.012
  H      156.036      68.930    -126.972
  H      155.373      69.647    -124.789
  H      153.850      68.742    -124.846
  P      153.736      72.050    -126.518
  C      155.344      71.789    -124.506
  O      154.031      71.614    -125.000
  O      152.188      71.650    -126.736
  O      154.013      73.485    -126.875
  H      151.627      72.434    -126.589
  H      155.316      71.707    -123.408
  H      155.737      72.779    -124.762
  H      156.008      71.015    -124.900
  H      155.943      68.422    -120.603
  H      156.680      66.962    -121.219
  H      155.112      67.465    -121.805

 3  4  5  6  7  8  9  10  11  12  23  26  30  31 0
 6-311+G(2d,p)
 ****
 33  35  36  37  38 0
 6-311+G(2d,p)
 ****
 1  2  13  14  15  16  17  18  19  20  21  22  24  25 0
 3-21G
 ****
 27  28  29  32  34  39  40  41  42  43  44  45  46  47  48  49 0
 3-21G
 ****


