%nproc=1
%NoSave
%Mem=1900MB
#P OB98/GEN NMR

erre ene a

0 1
  C      110.311     197.607     456.211
  O      110.605     198.809     455.514
  P      112.108     199.204     455.130
  C      111.174     200.100     452.907
  O      111.960     200.393     454.052
  C      110.425     201.348     452.450
  O      109.477     201.716     453.479
  C      111.283     202.600     452.234
  O      111.902     202.677     450.959
  C      110.225     203.693     452.346
  O      109.488     203.782     451.109
  C      109.328     203.158     453.467
  N      108.222     206.695     456.997
  C      107.657     206.394     455.811
  N      108.017     205.454     454.914
  C      109.063     204.747     455.377
  C      109.746     204.936     456.569
  C      109.283     205.964     457.406
  N      109.850     206.261     458.632
  N      110.785     204.026     456.685
  C      110.715     203.302     455.589
  N      109.694     203.691     454.772
  O      112.964     198.056     454.723
  O      112.664     199.968     456.422
  H      108.733     204.380     451.273
  H      113.639     200.010     456.401
  H      106.787     206.997     455.532
  H      111.392     202.488     455.348
  H      108.265     203.376     453.293
  H      110.658     204.681     452.531
  H      112.017     202.721     453.041
  H      109.862     201.106     451.542
  H      110.447     199.320     453.176
  H      109.375     206.925     459.218
  H      110.534     205.606     459.008
  H      111.809     199.705     452.102
  P      113.378     203.330     450.895
  C      113.841     202.660     448.409
  O      113.621     203.684     449.345
  O      114.445     202.512     451.550
  O      113.157     204.766     451.574
  H      112.592     205.382     451.075
  H      113.829     203.098     447.403
  H      113.066     201.899     448.466
  H      114.831     202.197     448.576
  H      109.255     197.535     456.367
  H      110.812     197.611     457.156
  H      110.644     196.770     455.634

 3  4  5  6  7  8  9  10  11  12  22  25  29  30  31  32 0
 6-311+G(2d,p)
 ****
 33  36  37 0
 6-311+G(2d,p)
 ****
 1  2  13  14  15  16  17  18  19  20  21  23  24  26 0
 3-21G
 ****
 27  28  34  35  38  39  40  41  42  43  44  45  46  47  48 0
 3-21G
 ****


