%nproc=1
%NoSave
%Mem=1900MB
#P OB98/GEN NMR

erre ene a

0 1
  C       76.506      -8.076      41.822
  O       75.388      -7.676      42.588
  H       77.293      -7.324      41.935
  H       76.248      -8.157      40.764
  H       76.887      -9.035      42.186
  P       74.011      -8.479      42.387
  C       72.323      -8.750      40.452
  O       73.488      -8.075      40.922
  C       71.766      -8.072      39.197
  O       71.075      -6.858      39.554
  C       72.837      -7.644      38.206
  O       73.488      -8.717      37.560
  C       72.114      -6.593      37.377
  O       71.369      -7.140      36.293
  C       71.147      -5.975      38.416
  N       71.545      -4.626      38.799
  C       70.944      -3.593      38.088
  O       70.141      -3.776      37.172
  N       71.329      -2.327      38.433
  C       72.273      -2.007      39.364
  O       72.605      -0.851      39.600
  C       72.893      -3.142      40.066
  C       72.507      -4.382      39.756
  O       72.987      -8.295      43.467
  O       74.480      -9.996      42.198
  H       70.914      -6.396      35.854
  H       73.727     -10.620      42.330
  H       70.896      -1.566      37.936
  H       73.648      -2.925      40.809
  H       72.951      -5.237      40.259
  H       70.131      -5.921      38.003
  H       72.813      -5.869      36.950
  H       73.619      -7.110      38.761
  H       71.043      -8.750      38.730
  H       71.571      -8.708      41.247
  H       72.562      -9.798      40.246
  P       74.997      -8.642      37.040
  C       76.375      -7.037      35.530
  O       75.083      -7.499      35.912
  O       75.689      -9.943      36.795
  O       75.729      -7.935      38.294
  H       76.630      -8.305      38.353
  H       76.276      -6.283      34.777
  H       76.946      -7.855      35.143
  H       76.873      -6.626      36.383

 6  7  8  9  10  11  12  13  14  15  16  26  31  32  33  34  35 0
 6-311+G(2d,p)
 ****
 36  37 0
 6-311+G(2d,p)
 ****
 1  2  3  4  5  17  18  19  20  21  22  23  24  25 0
 3-21G
 ****
 27  28  29  30  38  39  40  41  42  43  44  45 0
 3-21G
 ****


