%nproc=1
%NoSave
%Mem=1900MB
#P OB98/GEN NMR

erre ene a

0 1
  C     -202.823    -356.031     148.029
  O     -202.770    -357.111     148.943
  H     -203.846    -355.648     147.958
  H     -202.171    -355.232     148.387
  H     -202.478    -356.356     147.042
  P     -203.697    -358.381     148.619
  C     -203.671    -359.727     146.401
  O     -202.918    -359.254     147.510
  C     -202.772    -360.545     145.470
  O     -201.627    -359.729     145.108
  C     -202.243    -361.857     146.078
  O     -202.634    -362.970     145.270
  C     -200.734    -361.722     146.022
  O     -200.068    -362.933     145.644
  C     -200.512    -360.621     144.987
  N     -196.358    -358.727     142.707
  C     -197.587    -359.026     142.225
  N     -198.683    -359.425     142.903
  C     -198.428    -359.484     144.225
  C     -197.240    -359.191     144.867
  C     -196.163    -358.814     144.046
  N     -194.891    -358.568     144.531
  N     -197.356    -359.379     146.231
  C     -198.584    -359.821     146.404
  N     -199.265    -359.918     145.221
  O     -204.919    -357.743     147.802
  O     -204.166    -359.145     149.809
  H     -200.028    -363.490     146.445
  H     -205.765    -358.077     148.159
  H     -197.704    -358.938     141.144
  H     -199.019    -360.123     147.355
  H     -200.498    -361.012     143.962
  H     -200.360    -361.419     147.003
  H     -202.589    -362.013     147.110
  H     -203.323    -360.754     144.549
  H     -204.074    -358.878     145.839
  H     -194.153    -358.420     143.856
  H     -194.706    -358.736     145.512
  H     -204.507    -360.334     146.762
  P     -203.824    -363.893     145.832
  C     -206.225    -363.218     146.607
  O     -205.196    -363.084     145.630
  O     -203.599    -363.839     147.420
  O     -203.805    -365.290     145.316
  H     -203.955    -364.646     147.833
  H     -207.065    -362.619     146.325
  H     -205.858    -362.893     147.558
  H     -206.524    -364.243     146.672

 6  7  8  9  10  11  12  13  14  15  25  28  32  33  34  35 0
 6-311+G(2d,p)
 ****
 36  39  40 0
 6-311+G(2d,p)
 ****
 1  2  3  4  5  16  17  18  19  20  21  22  23  24 0
 3-21G
 ****
 26  27  29  30  31  37  38  41  42  43  44  45  46  47  48 0
 3-21G
 ****


