%nproc=1
%NoSave
%Mem=1900MB
#P OB98/GEN NMR

erre ene a

0 1
  C       57.935     175.126    -259.541
  O       59.278     175.540    -259.386
  H       57.830     174.637    -260.513
  H       57.261     175.987    -259.508
  H       57.664     174.411    -258.760
  P       59.685     176.326    -258.052
  C       59.869     178.771    -258.863
  O       60.567     177.580    -258.524
  C       60.690     179.606    -259.842
  O       62.010     179.843    -259.319
  C       60.882     178.956    -261.213
  O       59.741     179.162    -262.027
  C       62.099     179.717    -261.711
  O       61.703     181.030    -262.152
  C       62.947     179.827    -260.430
  N       67.457     177.903    -261.739
  C       66.763     178.974    -262.269
  N       67.340     179.602    -263.315
  N       65.605     179.384    -261.822
  C       65.117     178.619    -260.819
  C       65.701     177.524    -260.222
  C       67.014     177.122    -260.681
  O       67.672     176.193    -260.222
  N       64.865     176.948    -259.299
  C       63.798     177.725    -259.302
  N       63.898     178.750    -260.215
  O       60.325     175.505    -256.974
  O       58.321     177.004    -257.562
  H       61.251     180.922    -263.009
  H       57.849     176.429    -256.932
  H       68.342     177.628    -262.129
  H       62.932     177.595    -258.664
  H       63.516     180.764    -260.394
  H       62.589     179.227    -262.555
  H       68.152     179.243    -263.797
  H       61.137     177.896    -261.122
  H       66.820     180.351    -263.754
  H       60.203     180.585    -259.939
  H       59.699     179.328    -257.936
  H       58.899     178.532    -259.309
  P       59.042     177.949    -262.817
  C       59.286     179.392    -264.949
  O       58.427     178.605    -264.144
  O       58.077     177.151    -262.010
  O       60.264     177.104    -263.401
  H       60.623     176.447    -262.754
  H       58.743     179.762    -265.794
  H       60.106     178.793    -265.286
  H       59.657     180.215    -264.375

 6  7  8  9  10  11  12  13  14  15  26  29  33  34 0
 6-311+G(2d,p)
 ****
 36  38  39  40  41 0
 6-311+G(2d,p)
 ****
 1  2  3  4  5  16  17  18  19  20  21  22  23  24  25 0
 3-21G
 ****
 27  28  30  31  32  35  37  42  43  44  45  46  47 0
 3-21G
 ****
 48  49 0
 3-21G
 ****


