%nproc=1
%NoSave
%Mem=1900MB
#P OB98/GEN NMR

erre ene a

0 1
  C     -182.251     184.030     -65.473
  O     -181.652     183.304     -64.416
  P     -180.718     182.060     -64.803
  C     -182.662     180.322     -64.750
  O     -181.648     180.967     -65.512
  C     -183.016     178.979     -65.396
  O     -183.311     179.158     -66.798
  C     -181.884     177.962     -65.344
  O     -181.792     177.352     -64.067
  C     -182.288     176.995     -66.449
  O     -183.247     176.037     -65.972
  C     -182.930     177.944     -67.481
  N     -182.056     178.215     -68.618
  C     -181.907     177.174     -69.531
  O     -182.455     176.078     -69.393
  N     -181.077     177.420     -70.590
  C     -180.351     178.558     -70.794
  O     -179.578     178.700     -71.734
  C     -180.525     179.614     -69.779
  C     -181.352     179.394     -68.753
  O     -180.359     181.394     -63.390
  O     -179.491     182.420     -65.573
  H     -184.052     176.543     -65.738
  H     -179.448     181.044     -63.411
  H     -180.976     176.689     -71.276
  H     -179.965     180.531     -69.910
  H     -181.482     180.152     -67.989
  H     -183.865     177.509     -67.863
  H     -181.434     176.430     -66.836
  H     -180.936     178.442     -65.618
  H     -183.913     178.583     -64.904
  H     -183.549     180.959     -64.713
  H     -182.301     180.173     -63.729
  P     -180.318     177.123     -63.473
  C     -180.703     174.803     -64.617
  O     -179.787     175.787     -64.185
  O     -180.665     176.687     -61.971
  O     -179.449     178.328     -63.591
  H     -181.503     176.198     -61.917
  H     -181.629     175.252     -64.985
  H     -180.929     174.131     -63.785
  H     -180.243     174.226     -65.425
  H     -182.842     184.826     -65.069
  H     -182.876     183.377     -66.045
  H     -181.488     184.437     -66.104

 3  4  5  6  7  8  9  10  11  12  13  23  28  29  30  31  32 0
 6-311+G(2d,p)
 ****
 33  34 0
 6-311+G(2d,p)
 ****
 1  2  14  15  16  17  18  19  20  21  22  24  25  26 0
 3-21G
 ****
 27  35  36  37  38  39  40  41  42  43  44  45 0
 3-21G
 ****


