%nproc=1
%NoSave
%Mem=1900MB
#P OB98/GEN NMR

erre ene a

0 1
  C       18.973    -543.352     397.917
  O       18.007    -543.057     396.930
  H       19.828    -543.837     397.436
  H       18.553    -544.037     398.653
  H       19.324    -542.439     398.411
  P       16.779    -542.096     397.305
  C       15.131    -543.797     398.334
  O       16.071    -542.761     398.583
  C       14.059    -543.816     399.425
  O       13.149    -544.925     399.160
  C       14.632    -544.012     400.847
  O       13.820    -543.277     401.772
  C       14.433    -545.499     401.049
  O       14.460    -545.855     402.409
  C       13.084    -545.713     400.365
  N       12.837    -547.123     400.092
  C       12.013    -547.802     400.986
  O       11.502    -547.277     401.977
  N       11.843    -549.137     400.754
  C       12.494    -549.870     399.803
  O       12.366    -551.083     399.689
  C       13.396    -549.116     398.918
  C       13.521    -547.796     399.097
  O       15.852    -541.752     396.186
  O       17.471    -540.801     397.942
  H       13.796    -545.341     402.900
  H       16.866    -540.036     397.899
  H       11.238    -549.640     401.385
  H       13.938    -549.665     398.162
  H       14.189    -547.210     398.477
  H       12.263    -545.318     400.978
  H       15.227    -546.059     400.540
  H       15.679    -543.699     400.935
  H       13.470    -542.893     399.363
  H       15.672    -544.754     398.324
  H       14.663    -543.643     397.353
  P       14.315    -541.889     402.416
  C       16.211    -542.859     403.853
  O       15.877    -541.968     402.793
  O       13.446    -541.387     403.528
  O       14.285    -540.853     401.192
  H       13.859    -540.026     401.486
  H       17.268    -542.834     404.020
  H       15.915    -543.853     403.590
  H       15.702    -542.559     404.745

 6  7  8  9  10  11  12  13  14  15  16  26  31  32  33  34  35 0
 6-311+G(2d,p)
 ****
 36  37 0
 6-311+G(2d,p)
 ****
 1  2  3  4  5  17  18  19  20  21  22  23  24  25 0
 3-21G
 ****
 27  28  29  30  38  39  40  41  42  43  44  45 0
 3-21G
 ****


