%nproc=1
%NoSave
%Mem=1900MB
#P OB98/GEN NMR

erre ene a

0 1
  C      -98.867     272.569     366.016
  O     -100.204     273.047     366.028
  P     -100.547     274.329     365.124
  C     -100.493     272.981     362.862
  O      -99.946     274.011     363.671
  C     -100.875     273.540     361.486
  O     -101.895     274.553     361.636
  C      -99.734     274.216     360.740
  O      -98.849     273.271     360.156
  C     -100.505     275.070     359.733
  O     -100.930     274.267     358.620
  C     -101.726     275.512     360.566
  N     -101.607     276.874     361.087
  C     -101.354     277.870     360.149
  O     -101.235     277.648     358.948
  N     -101.224     279.140     360.653
  C     -101.259     279.488     361.971
  O     -101.091     280.636     362.370
  C     -101.494     278.387     362.916
  C     -101.655     277.149     362.439
  O      -99.548     275.408     365.752
  O     -101.991     274.703     365.161
  H      -98.762     274.985     366.146
  H     -100.137     273.793     358.306
  H     -101.063     279.883     359.989
  H     -101.521     278.624     363.972
  H     -101.824     276.328     363.120
  H     -102.638     275.452     359.962
  H      -99.908     275.896     359.335
  H      -99.175     274.871     361.422
  H     -101.298     272.725     360.888
  H     -101.386     272.576     363.351
  H      -99.755     272.179     362.756
  P      -97.360     273.782     359.845
  C      -96.605     273.131     362.263
  O      -96.694     274.121     361.259
  O      -97.651     275.215     359.191
  O      -96.577     272.851     358.972
  H      -98.345     275.707     359.659
  H      -95.835     273.424     362.978
  H      -96.343     272.156     361.839
  H      -97.563     273.055     362.786
  H      -98.787     271.718     366.659
  H      -98.210     273.340     366.361
  H      -98.597     272.290     365.019

 3  4  5  6  7  8  9  10  11  12  13  24  28  29  30  31  32 0
 6-311+G(2d,p)
 ****
 33  34 0
 6-311+G(2d,p)
 ****
 1  2  14  15  16  17  18  19  20  21  22  23  25  26  27 0
 3-21G
 ****
 35  36  37  38  39  40  41  42  43  44  45 0
 3-21G
 ****


