%nproc=1
%NoSave
%Mem=1900MB
#P OB98/GEN NMR

erre ene a

0 1
  C     -204.257     -73.963     130.813
  O     -204.695     -73.247     131.950
  H     -203.193     -74.191     130.927
  H     -204.391     -73.357     129.911
  H     -204.811     -74.901     130.716
  P     -206.249     -72.850     131.997
  C     -207.671     -71.044     130.780
  O     -206.493     -71.844     130.772
  C     -207.861     -70.390     129.414
  O     -207.755     -71.397     128.380
  C     -209.225     -69.740     129.215
  O     -209.300     -68.467     129.834
  C     -209.307     -69.681     127.696
  O     -208.622     -68.536     127.175
  C     -208.578     -70.963     127.274
  N     -211.628     -72.652     123.554
  C     -210.777     -71.604     123.618
  N     -209.983     -71.233     124.645
  C     -210.122     -72.079     125.680
  C     -210.955     -73.183     125.762
  C     -211.735     -73.466     124.630
  N     -212.629     -74.513     124.575
  N     -210.854     -73.774     127.006
  C     -209.970     -73.046     127.660
  N     -209.498     -72.016     126.896
  O     -206.335     -71.906     133.290
  O     -207.198     -73.999     132.079
  H     -209.076     -67.750     127.535
  H     -206.603     -72.436     134.063
  H     -210.731     -70.981     122.730
  H     -209.649     -73.218     128.681
  H     -207.908     -70.797     126.421
  H     -210.342     -69.621     127.355
  H     -210.019     -70.400     129.587
  H     -207.055     -69.661     129.261
  H     -207.573     -70.264     131.542
  H     -208.530     -71.679     131.027
  H     -213.172     -74.642     123.738
  H     -212.792     -75.058     125.411
  P     -210.743     -67.803     130.041
  C     -212.573     -66.760     128.515
  O     -211.291     -67.364     128.598
  O     -210.406     -66.412     130.761
  O     -211.699     -68.627     130.839
  H     -210.563     -66.479     131.721
  H     -212.792     -66.527     127.494
  H     -212.582     -65.861     129.095
  H     -213.311     -67.436     128.893

 6  7  8  9  10  11  12  13  14  15  25  28  32  33  34  35 0
 6-311+G(2d,p)
 ****
 36  37  40 0
 6-311+G(2d,p)
 ****
 1  2  3  4  5  16  17  18  19  20  21  22  23  24 0
 3-21G
 ****
 26  27  29  30  31  38  39 41  42  43  44  45  46  47  48 0
 3-21G
 ****


