%nproc=1
%NoSave
%Mem=1900MB
#P OB98/GEN NMR

erre ene a

0 1
  C      -40.020    -335.552     127.246
  O      -39.194    -334.405     127.318
  P      -38.711    -333.852     128.742
  C      -36.228    -334.631     128.736
  O      -37.532    -334.814     129.243
  C      -35.233    -335.585     129.410
  O      -33.961    -335.450     128.732
  C      -34.955    -335.287     130.879
  O      -34.371    -336.449     131.476
  C      -33.918    -334.190     130.783
  O      -33.168    -334.051     131.988
  C      -33.099    -334.612     129.538
  N      -32.651    -333.440     128.763
  C      -31.529    -332.766     129.235
  O      -30.875    -333.149     130.203
  N      -31.235    -331.586     128.607
  C      -31.971    -331.015     127.610
  O      -31.879    -329.840     127.278
  C      -32.991    -331.884     127.002
  C      -33.299    -333.030     127.615
  O      -39.939    -334.220     129.699
  O      -38.397    -332.395     128.776
  H      -32.438    -334.710     131.947
  H      -40.529    -333.452     129.801
  H      -30.511    -331.025     129.042
  H      -33.496    -331.531     126.113
  H      -34.084    -333.666     127.216
  H      -32.210    -335.190     129.818
  H      -34.422    -333.236     130.596
  H      -35.833    -334.971     131.447
  H      -35.576    -336.619     129.282
  H      -35.926    -333.591     128.886
  H      -36.215    -334.807     127.653
  P      -34.517    -336.629     133.063
  C      -37.023    -337.187     133.041
  O      -36.033    -336.253     133.423
  O      -33.473    -335.961     133.895
  O      -34.495    -338.222     133.247
  H      -34.277    -338.443     134.171
  H      -37.860    -337.115     133.739
  H      -36.636    -338.209     133.051
  H      -37.378    -336.946     132.034
  H      -40.239    -335.770     126.222
  H      -40.932    -335.368     127.774
  H      -39.513    -336.385     127.688

 3  4  5  6  7  8  9  10  11  12  13  23  28  29  30  31  32 0
 6-311+G(2d,p)
 ****
 33  34 0
 6-311+G(2d,p)
 ****
 1  2  14  15  16  17  18  19  20  21  22  24  25  26  27 0
 3-21G
 ****
 35  36  37  38  39  40  41  42  43  44  45 0
 3-21G
 ****


