%nproc=1
%NoSave
%Mem=1900MB
#P OB98/GEN NMR

erre ene a

0 1
  C     -161.603     171.319      -1.426
  O     -162.824     170.605      -1.267
  P     -162.763     169.005      -1.347
  C     -163.183     168.806      -3.929
  O     -163.632     168.545      -2.613
  C     -164.352     168.773      -4.929
  O     -164.972     167.462      -4.867
  C     -165.476     169.765      -4.651
  O     -166.252     169.924      -5.842
  C     -166.292     169.023      -3.615
  O     -167.607     169.560      -3.498
  C     -166.204     167.562      -4.107
  N     -166.208     166.567      -3.013
  C     -167.433     166.078      -2.566
  O     -168.520     166.427      -3.025
  N     -167.385     165.189      -1.527
  C     -166.256     164.716      -0.932
  O     -166.272     163.987       0.053
  C     -164.990     165.154      -1.532
  C     -165.022     166.050      -2.519
  O     -163.623     168.533      -0.086
  O     -161.377     168.456      -1.320
  H     -168.032     169.095      -2.741
  H     -163.036     168.204       0.619
  H     -168.268     164.878      -1.149
  H     -164.071     164.747      -1.130
  H     -164.093     166.400      -2.962
  H     -167.043     167.318      -4.771
  H     -165.816     169.117      -2.634
  H     -165.143     170.740      -4.289
  H     -163.962     168.905      -5.944
  H     -162.420     168.078      -4.212
  H     -162.703     169.791      -3.964
  P     -165.825     171.080      -6.867
  C     -167.972     172.352      -6.256
  O     -167.179     171.821      -7.300
  O     -164.930     170.664      -7.986
  O     -165.123     172.162      -5.915
  H     -164.567     172.758      -6.449
  H     -168.518     173.219      -6.635
  H     -167.358     172.663      -5.405
  H     -168.688     171.595      -5.928
  H     -161.792     172.370      -1.350
  H     -161.184     171.100      -2.386
  H     -160.915     171.024      -0.661

 3  4  5  6  7  8  9  10  11  12  13  23  28  29  30  31  32 0
 6-311+G(2d,p)
 ****
 33  34 0
 6-311+G(2d,p)
 ****
 1  2  14  15  16  17  18  19  20  21  22  24  25  26  27 0
 3-21G
 ****
 35  36  37  38  39  40  41  42  43  44  45 0
 3-21G
 ****


