%nproc=1
%NoSave
%Mem=1900MB
#P OB98/GEN NMR

erre ene a

0 1
  C      -29.228     -51.832      28.886
  O      -29.306     -52.527      27.634
  P      -30.534     -53.479      27.229
  C      -31.830     -55.465      28.272
  O      -30.776     -54.521      28.427
  C      -31.796     -56.512      29.388
  O      -30.798     -57.522      29.094
  C      -31.398     -55.988      30.761
  O      -32.433     -55.232      31.367
  C      -31.056     -57.286      31.489
  O      -32.230     -57.908      32.031
  C      -30.474     -58.156      30.358
  N      -29.040     -58.366      30.483
  C      -28.630     -59.397      31.338
  O      -29.457     -60.021      32.003
  N      -27.290     -59.677      31.425
  C      -26.430     -58.933      30.804
  N      -25.115     -59.272      30.915
  C      -26.813     -57.753      30.003
  C      -28.121     -57.533      29.886
  O      -30.381     -54.129      25.889
  O      -31.831     -52.539      27.268
  H      -32.509     -52.893      26.663
  H      -32.712     -58.306      31.281
  H      -26.061     -57.133      29.536
  H      -28.492     -56.695      29.302
  H      -30.981     -59.128      30.330
  H      -30.366     -57.119      32.324
  H      -30.492     -55.374      30.665
  H      -32.780     -56.997      29.434
  H      -24.886     -60.092      31.464
  H      -31.704     -55.970      27.307
  H      -24.372     -58.771      30.454
  H      -32.791     -54.935      28.261
  P      -32.295     -53.632      31.307
  C      -31.307     -51.774      32.828
  O      -31.566     -53.154      32.653
  O      -33.804     -53.120      31.486
  O      -31.688     -53.111      30.045
  H      -33.956     -52.349      30.905
  H      -31.281     -51.555      33.900
  H      -32.076     -51.153      32.357
  H      -30.332     -51.533      32.395
  H      -28.322     -51.265      28.923
  H      -29.239     -52.540      29.688
  H      -30.065     -51.173      28.981

 3  4  5  6  7  8  9  10  11  12  13  24  27  28  29  30  32 0
 6-311+G(2d,p)
 ****
 34  35 0
 6-311+G(2d,p)
 ****
 1  2  14  15  16  17  18  19  20  21  22  23  25  26 0
 3-21G
 ****
 31  33  36  37  38  39  40  41  42  43  44  45  46 0
 3-21G
 ****


