%nproc=1
%NoSave
%Mem=1900MB
#P OB98/GEN NMR

erre ene a

0 1
  C     -126.027     128.971     -23.374
  O     -127.060     129.883     -23.712
  P     -128.518     129.272     -24.003
  C     -129.546     130.128     -21.770
  O     -129.192     129.002     -22.568
  C     -131.022     130.500     -21.956
  O     -131.844     129.445     -21.397
  C     -131.423     131.815     -21.288
  O     -132.374     132.466     -22.135
  C     -132.115     131.373     -20.012
  O     -133.030     132.360     -19.536
  C     -132.768     130.056     -20.473
  N     -133.067     129.171     -19.350
  C     -134.038     129.611     -18.438
  O     -134.529     130.733     -18.556
  N     -134.378     128.794     -17.386
  C     -133.734     127.682     -17.204
  N     -134.113     126.901     -16.153
  C     -132.626     127.238     -18.073
  C     -132.363     128.010     -19.127
  O     -128.191     127.801     -24.541
  O     -129.339     130.060     -24.970
  H     -133.532     131.975     -18.782
  H     -128.855     127.512     -25.191
  H     -132.097     126.320     -17.855
  H     -131.582     127.751     -19.834
  H     -133.701     130.257     -21.018
  H     -131.374     131.179     -19.230
  H     -130.573     132.481     -21.114
  H     -131.229     130.541     -23.034
  H     -134.866     127.239     -15.562
  H     -128.940     130.986     -22.079
  H     -133.666     126.021     -15.932
  H     -129.330     129.917     -20.724
  P     -132.383     134.070     -22.158
  C     -130.768     134.321     -24.143
  O     -130.947     134.480     -22.749
  O     -132.200     134.412     -20.598
  O     -133.575     134.766     -22.726
  H     -132.250     135.378     -20.468
  H     -129.805     134.759     -24.425
  H     -131.563     134.828     -24.691
  H     -130.752     133.257     -24.400
  H     -125.117     129.509     -23.208
  H     -125.889     128.275     -24.175
  H     -126.296     128.441     -22.484

 3  4  5  6  7  8  9  10  11  12  13  21  23  27  28  29  30  32 0
 6-311+G(2d,p)
 ****
 34  35 0
 6-311+G(2d,p)
 ****
 1  2  14  15  16  17  18  19  20  22  24  25  26 0
 3-21G
 ****
 31  33  36  37  38  39  40  41  42  43  44  45  46 0
 3-21G
 ****


