%nproc=1
%NoSave
%Mem=1900MB
#P OB98/GEN NMR

erre ene a

0 1
  C     -157.490       7.767    -106.941
  O     -158.596       7.005    -107.389
  H     -157.856       8.711    -106.527
  H     -156.818       7.988    -107.779
  H     -156.948       7.224    -106.163
  P     -158.254       5.604    -108.092
  C     -159.780       6.211    -110.097
  O     -158.485       5.818    -109.667
  C     -160.074       5.657    -111.490
  O     -161.415       5.997    -111.905
  C     -159.134       6.166    -112.579
  O     -157.933       5.414    -112.606
  C     -159.982       5.962    -113.825
  O     -159.945       4.582    -114.256
  C     -161.386       6.338    -113.321
  N     -161.437      10.181    -116.598
  C     -160.919       8.908    -116.726
  N     -160.299       8.617    -117.892
  N     -160.994       7.994    -115.793
  C     -161.590       8.436    -114.660
  C     -162.139       9.674    -114.407
  C     -162.100      10.658    -115.473
  O     -162.615      11.774    -115.449
  N     -162.670       9.734    -113.143
  C     -162.415       8.550    -112.620
  N     -161.751       7.727    -113.501
  O     -159.481       4.663    -107.663
  O     -156.947       4.994    -107.705
  H     -160.520       4.478    -115.034
  H     -159.142       3.764    -107.498
  H     -161.379      10.832    -117.360
  H     -162.688       8.234    -111.624
  H     -162.166       5.742    -113.810
  H     -159.616       6.556    -114.664
  H     -159.961       9.342    -118.508
  H     -158.927       7.237    -112.452
  H     -159.855       7.710    -117.952
  H     -160.027       4.562    -111.426
  H     -159.829       7.303    -110.121
  H     -160.526       5.833    -109.387
  P     -156.617       6.105    -113.210
  C     -156.675       4.911    -115.517
  O     -156.768       6.139    -114.810
  O     -155.488       4.992    -112.966
  O     -156.247       7.402    -112.571
  H     -154.912       5.269    -112.224
  H     -156.794       5.093    -116.565
  H     -157.443       4.247    -115.180
  H     -155.717       4.468    -115.339

 6  7  8  9  10  11  12  13  14  15  26  29  33  34 0
 6-311+G(2d,p)
 ****
 36  38  39  40  41 0
 6-311+G(2d,p)
 ****
 1  2  3  4  5  16  17  18  19  20  21  22  23  24  25 0
 3-21G
 ****
 27  28  30  31  32  35  37  42  43  44  45  46  47 0
 3-21G
 ****
 48  49 0
 3-21G
 ****


