%nproc=1
%NoSave
%Mem=1900MB
#P OB98/GEN NMR

erre ene a

0 1
  C     -100.113     399.431    -262.475
  O     -100.799     399.020    -263.657
  P     -100.588     399.862    -265.010
  C     -100.051     397.852    -266.520
  O     -100.947     398.923    -266.263
  C     -100.283     396.658    -265.583
  O     -101.695     396.335    -265.493
  C      -99.551     395.372    -266.004
  O      -99.147     394.709    -264.803
  C     -100.641     394.594    -266.713
  O     -100.333     393.213    -266.829
  C     -101.843     394.939    -265.826
  N     -103.113     394.671    -266.479
  C     -103.601     393.363    -266.415
  O     -102.914     392.475    -265.910
  N     -104.839     393.097    -266.949
  C     -105.459     394.020    -267.619
  N     -106.690     393.724    -268.112
  C     -104.892     395.360    -267.860
  C     -103.741     395.620    -267.247
  O      -99.284     400.581    -265.119
  O     -101.815     400.895    -264.979
  H     -100.260     392.827    -265.934
  H     -101.526     401.741    -265.377
  H     -105.405     396.068    -268.497
  H     -103.245     396.575    -267.355
  H     -101.808     394.374    -264.884
  H     -100.781     394.996    -267.721
  H      -98.665     395.561    -266.623
  H      -99.953     396.950    -264.578
  H     -107.058     392.793    -267.958
  H      -99.024     398.205    -266.400
  H     -107.261     394.403    -268.603
  H     -100.147     397.551    -267.570
  P      -97.624     394.847    -264.307
  C      -97.773     394.349    -261.763
  O      -97.424     393.884    -263.044
  O      -97.641     396.299    -263.615
  O      -96.579     394.805    -265.375
  H      -96.736     396.667    -263.630
  H      -97.840     393.497    -261.083
  H      -98.741     394.862    -261.772
  H      -96.999     395.029    -261.394
  H     -100.360     398.770    -261.671
  H     -100.407     400.428    -262.220
  H      -99.057     399.403    -262.647

 3  4  5  6  7  8  9  10  11  12  13  23  27  28  29  30  32 0
 6-311+G(2d,p)
 ****
 34  35 0
 6-311+G(2d,p)
 ****
 1  2  14  15  16  17  18  19  20  21  22  24  25  26 0
 3-21G
 ****
 31  33  36  37  38  39  40  41  42  43  44  45  46 0
 3-21G
 ****


