%nproc=1
%NoSave
%Mem=1900MB
#P OB98/GEN NMR

erre ene a

0 1
  C      364.155      70.866     234.069
  O      363.410      70.953     235.276
  P      362.413      72.186     235.543
  C      363.393      74.085     236.972
  O      363.367      73.467     235.692
  C      364.491      73.464     237.831
  O      365.706      73.380     237.046
  C      364.889      74.252     239.084
  O      364.061      74.017     240.220
  C      366.278      73.684     239.349
  O      366.165      72.402     239.988
  C      366.843      73.526     237.936
  N      371.609      75.286     237.307
  C      371.130      74.086     237.711
  N      369.842      73.700     237.874
  C      369.008      74.692     237.525
  C      369.343      75.969     237.087
  C      370.716      76.251     236.981
  N      371.198      77.467     236.555
  N      368.207      76.714     236.843
  C      367.207      75.900     237.114
  N      367.637      74.664     237.515
  O      361.446      71.965     236.654
  O      361.699      72.427     234.134
  H      365.697      72.546     240.836
  H      360.894      72.974     234.255
  H      371.883      73.336     237.946
  H      366.158      76.155     237.028
  H      367.458      72.625     237.822
  H      366.880      74.318     240.014
  H      364.969      75.322     238.869
  H      364.186      72.441     238.098
  H      362.422      73.925     237.455
  H      372.187      77.546     236.384
  H      370.541      78.133     236.153
  H      363.544      75.164     236.857
  P      364.053      75.146     241.366
  C      365.325      74.497     243.565
  O      365.389      74.914     242.214
  O      362.792      75.212     242.157
  O      364.361      76.489     240.543
  H      365.253      76.545     240.160
  H      366.331      74.249     243.908
  H      364.689      73.620     243.666
  H      364.934      75.316     244.187
  H      364.755      69.980     234.083
  H      364.788      71.724     233.978
  H      363.483      70.829     233.237

 3  4  5  6  7  8  9  10  11  12  22  25  29  30  31  32 0
 6-311+G(2d,p)
 ****
 33  36  37 0
 6-311+G(2d,p)
 ****
 1  2  13  14  15  16  17  18  19  20  21  23  24  26 0
 3-21G
 ****
 27  28  34  35  38  39  40  41  42  43  44  45  46  47  48 0
 3-21G
 ****


