%nproc=1
%NoSave
%Mem=1900MB
#P OB98/GEN NMR

erre ene a

0 1
  C      186.024    -447.888    -943.557
  O      186.572    -449.128    -943.957
  H      186.662    -447.066    -943.886
  H      185.040    -447.775    -944.024
  H      185.900    -447.856    -942.474
  P      188.018    -449.501    -943.370
  C      188.264    -450.747    -945.639
  O      188.892    -449.963    -944.631
  C      188.661    -450.234    -947.021
  O      188.350    -448.823    -947.137
  C      190.163    -450.337    -947.321
  O      190.521    -451.649    -947.741
  C      190.290    -449.336    -948.454
  O      189.785    -449.921    -949.673
  C      189.359    -448.214    -947.986
  N      192.580    -444.236    -948.272
  C      192.095    -445.078    -949.214
  N      191.243    -446.116    -949.051
  C      190.893    -446.244    -947.764
  C      191.307    -445.473    -946.697
  C      192.186    -444.407    -946.983
  N      192.686    -443.558    -946.028
  N      190.756    -445.922    -945.509
  C      189.995    -446.931    -945.875
  N      190.047    -447.183    -947.224
  O      187.767    -450.870    -942.577
  O      188.658    -448.454    -942.515
  H      190.352    -450.689    -949.871
  H      188.476    -451.020    -941.926
  H      192.443    -444.897    -950.226
  H      189.389    -447.532    -945.196
  H      188.842    -447.718    -948.812
  H      191.315    -449.038    -948.642
  H      190.774    -450.008    -946.465
  H      188.067    -450.773    -947.774
  H      187.176    -450.673    -945.524
  H      193.444    -442.955    -946.312
  H      192.526    -443.768    -945.049
  H      188.565    -451.797    -945.524
  P      191.656    -452.407    -946.892
  C      193.311    -451.928    -948.848
  O      193.054    -451.857    -947.440
  O      191.589    -453.906    -947.465
  O      191.470    -452.361    -945.409
  H      191.905    -454.554    -946.801
  H      194.280    -451.524    -949.055
  H      192.570    -451.364    -949.375
  H      193.275    -452.949    -949.166

 6  7  8  9  10  11  12  13  14  15  25  28  32  33  34  35 0
 6-311+G(2d,p)
 ****
 36  39  40 0
 6-311+G(2d,p)
 ****
 1  2  3  4  5  16  17  18  19  20  21  22  23  24 0
 3-21G
 ****
 26  27  29  30  31  37  38  41  42  43  44  45  46  47 0
 3-21G
 ****
 48 0
 3-21G
 ****


