%nproc=1
%NoSave
%Mem=1900MB
#P OB98/GEN NMR

erre ene a

0 1
  C     -899.140    -561.860    -926.695
  O     -898.150    -562.166    -925.724
  P     -896.770    -562.799    -926.252
  C     -895.570    -560.491    -926.385
  O     -896.040    -561.643    -927.095
  C     -894.070    -560.325    -926.532
  O     -893.410    -561.485    -925.968
  C     -893.580    -560.173    -927.981
  O     -892.500    -559.233    -927.984
  C     -893.050    -561.537    -928.320
  O     -892.090    -561.481    -929.376
  C     -892.510    -562.008    -926.963
  N     -892.390    -563.462    -926.887
  C     -891.140    -563.990    -926.561
  O     -890.180    -563.239    -926.446
  N     -891.010    -565.351    -926.430
  C     -892.010    -566.120    -926.714
  N     -891.830    -567.470    -926.579
  C     -893.320    -565.606    -927.188
  C     -893.450    -564.287    -927.212
  O     -897.260    -563.824    -927.374
  O     -895.950    -563.466    -925.189
  H     -891.430    -560.776    -929.136
  H     -896.660    -564.596    -927.424
  H     -894.120    -566.300    -927.432
  H     -894.370    -563.819    -927.518
  H     -891.510    -561.567    -926.780
  H     -893.870    -562.187    -928.647
  H     -894.370    -559.815    -928.651
  H     -893.760    -559.459    -925.937
  H     -890.920    -567.785    -926.279
  H     -895.810    -560.614    -925.323
  H     -892.550    -568.150    -926.767
  H     -896.100    -559.610    -926.768
  P     -892.240    -558.402    -929.328
  C     -892.900    -556.110    -928.358
  O     -893.250    -557.151    -929.243
  O     -892.970    -559.330    -930.430
  O     -890.830    -558.102    -929.719
  H     -892.830    -558.953    -931.307
  H     -893.580    -555.284    -928.505
  H     -891.880    -555.769    -928.549
  H     -892.970    -556.467    -927.317
  H     -900.000    -561.448    -926.210
  H     -899.417    -562.753    -927.215
  H     -898.748    -561.148    -927.391

 3  4  5  6  7  8  9  10  11  12  13  21  23  27  28  29  30  32 0
 6-311+G(2d,p)
 ****
 34  35 0
 6-311+G(2d,p)
 ****
 1  2  14  15  16  17  18  19  20  22  24  25  26 0
 3-21G
 ****
 31  33  36  37  38  39  40  41  42  43  44  45  46 0
 3-21G
 ****


