%nproc=1
%NoSave
%Mem=1900MB
#P OB98/GEN NMR

erre ene a

0 1
  C     -185.080    -105.084      54.861
  O     -185.947    -106.031      54.273
  H     -184.622    -105.533      55.746
  H     -185.637    -104.195      55.168
  H     -184.288    -104.805      54.160
  P     -186.800    -105.602      52.986
  C     -189.030    -105.221      54.228
  O     -187.961    -104.623      53.504
  C     -190.226    -104.262      54.294
  O     -189.924    -103.250      55.286
  C     -190.493    -103.561      52.954
  O     -191.844    -103.694      52.517
  C     -189.948    -102.157      53.182
  O     -190.547    -101.161      52.378
  C     -190.124    -101.954      54.691
  N     -189.203    -100.975      55.267
  C     -189.751     -99.790      55.749
  O     -190.947     -99.509      55.741
  N     -188.854     -98.894      56.275
  C     -187.502     -99.058      56.346
  O     -186.750     -98.219      56.831
  C     -186.981    -100.318      55.795
  C     -187.841    -101.204      55.287
  O     -187.270    -106.723      52.122
  O     -185.825    -104.613      52.187
  H     -191.517    -101.229      52.509
  H     -185.465    -105.072      51.405
  H     -189.240     -98.039      56.642
  H     -185.911    -100.474      55.824
  H     -187.491    -102.145      54.871
  H     -191.139    -101.627      54.919
  H     -188.877    -102.160      52.946
  H     -189.922    -104.036      52.147
  H     -191.104    -104.818      54.644
  H     -188.669    -105.448      55.235
  H     -189.330    -106.153      53.737
  P     -192.434    -104.947      51.728
  C     -193.014    -104.005      49.343
  O     -192.137    -104.757      50.169
  O     -193.819    -105.361      52.103
  O     -191.444    -106.156      52.137
  H     -191.988    -106.968      52.138
  H     -192.641    -103.998      48.340
  H     -193.075    -103.001      49.708
  H     -193.987    -104.450      49.358

 6  7  8  9  10  11  12  13  14  15  16  26  31  32  33  34  35 0
 6-311+G(2d,p)
 ****
 36  37 0
 6-311+G(2d,p)
 ****
 1  2  3  4  5  17  18  19  20  21  22  23  24  25 0
 3-21G
 ****
 27  28  29  30  38  39  40  41  42  43  44  45 0
 3-21G
 ****


