%nproc=1
%NoSave
%Mem=1900MB
#P OB98/GEN NMR

erre ene a

0 1
  C       79.845    -622.938     240.140
  O       80.562    -621.750     240.429
  H       79.024    -622.695     239.459
  H       79.408    -623.348     241.060
  H       80.499    -623.671     239.675
  P       81.779    -621.889     241.459
  C       82.707    -619.579     240.699
  O       82.260    -620.387     241.791
  C       83.255    -618.252     241.226
  O       84.105    -618.474     242.374
  C       84.080    -617.477     240.221
  O       83.273    -616.718     239.334
  C       84.929    -616.594     241.129
  O       84.185    -615.442     241.570
  C       85.222    -617.539     242.301
  N       90.165    -617.445     243.389
  C       89.166    -616.563     243.716
  N       89.541    -615.455     244.385
  N       87.899    -616.729     243.404
  C       87.671    -617.879     242.690
  C       88.575    -618.829     242.315
  C       89.971    -618.646     242.698
  O       90.899    -619.433     242.482
  N       87.970    -619.851     241.621
  C       86.695    -619.467     241.557
  N       86.482    -618.265     242.180
  O       82.970    -622.460     240.547
  O       81.534    -622.761     242.648
  H       83.975    -614.879     240.793
  H       83.564    -623.010     241.101
  H       91.111    -617.273     243.657
  H       85.915    -620.054     241.075
  H       85.268    -617.010     243.260
  H       85.820    -616.228     240.607
  H       90.485    -615.106     244.354
  H       84.744    -618.158     239.630
  H       88.801    -614.785     244.613
  H       82.397    -617.652     241.568
  H       81.861    -619.374     240.025
  H       83.476    -620.116     240.157
  P       83.365    -617.019     237.778
  C       81.567    -615.158     237.461
  O       82.786    -615.721     237.013
  O       82.245    -618.117     237.519
  O       84.717    -617.474     237.309
  H       82.387    -618.577     236.657
  H       81.321    -614.311     236.855
  H       81.670    -614.850     238.480
  H       80.788    -615.888     237.386

 6  7  8  9  10  11  12  13  14  15  26  29  33  34 0
 6-311+G(2d,p)
 ****
 36  38  39  40  41 0
 6-311+G(2d,p)
 ****
 1  2  3  4  5  16  17  18  19  20  21  22  23  24  25 0
 3-21G
 ****
 27  28  30  31  32  35  37  42  43  44  45  46  47 0
 3-21G
 ****
 48  49 0
 3-21G
 ****


