%nproc=1
%NoSave
%Mem=1900MB
#P OB98/GEN NMR

erre ene a

0 1
  C      391.131    -142.132     -23.447
  O      392.419    -141.666     -23.099
  H      390.959    -143.089     -22.951
  H      391.071    -142.280     -24.528
  H      390.366    -141.421     -23.124
  P      392.843    -140.222     -23.653
  C      391.164    -138.860     -22.219
  O      392.526    -139.173     -22.475
  C      391.033    -137.451     -21.646
  O      389.627    -137.055     -21.684
  C      391.510    -137.310     -20.193
  O      392.097    -136.010     -20.041
  C      390.209    -137.336     -19.404
  O      390.339    -136.743     -18.115
  C      389.296    -136.575     -20.365
  N      385.266    -134.421     -18.261
  C      386.542    -133.932     -18.463
  N      386.786    -132.674     -18.037
  N      387.497    -134.618     -19.030
  C      387.106    -135.850     -19.437
  C      385.879    -136.452     -19.291
  C      384.834    -135.690     -18.637
  O      383.692    -136.077     -18.413
  N      385.888    -137.723     -19.814
  C      387.117    -137.885     -20.271
  N      387.892    -136.779     -20.062
  O      391.711    -139.919     -24.742
  O      394.214    -140.134     -24.231
  H      390.894    -137.336     -17.566
  H      392.010    -140.199     -25.629
  H      384.570    -133.855     -17.805
  H      387.495    -138.779     -20.749
  H      389.473    -135.493     -20.341
  H      389.867    -138.371     -19.274
  H      386.088    -132.070     -17.632
  H      392.221    -138.079     -19.874
  H      387.701    -132.281     -18.213
  H      391.571    -136.757     -22.302
  H      390.765    -139.579     -21.497
  H      390.594    -138.941     -23.151
  P      393.694    -135.909     -19.965
  C      393.978    -136.681     -22.431
  O      394.250    -135.692     -21.451
  O      394.130    -137.420     -19.644
  O      394.201    -134.958     -18.933
  H      394.975    -137.421     -19.157
  H      394.415    -136.389     -23.363
  H      392.920    -136.784     -22.550
  H      394.395    -137.616     -22.119

 6  7  8  9  10  11  12  13  14  15  26  29  33  34 0
 6-311+G(2d,p)
 ****
 36  38  39  40  41 0
 6-311+G(2d,p)
 ****
 1  2  3  4  5  16  17  18  19  20  21  22  23  24  25 0
 3-21G
 ****
 27  28  30  31  32  35  37  42  43  44  45  46  47 0
 3-21G
 ****
 48  49 0
 3-21G
 ****


