%nproc=1
%NoSave
%Mem=1900MB
#P OB98/GEN NMR

erre ene a

0 1
  C     -336.813     486.968     -96.342
  O     -336.345     486.826     -95.020
  H     -336.013     486.682     -97.029
  H     -337.081     488.011     -96.533
  H     -337.678     486.322     -96.519
  P     -337.407     487.039     -93.833
  C     -336.562     489.487     -93.641
  O     -336.879     488.284     -92.963
  C     -336.861     490.695     -92.750
  O     -338.299     490.806     -92.576
  C     -336.228     490.607     -91.362
  O     -335.781     491.912     -90.976
  C     -337.375     490.184     -90.465
  O     -337.187     490.576     -89.104
  C     -338.573     490.839     -91.164
  N     -339.823     490.163     -90.835
  C     -340.637     490.779     -89.880
  O     -340.286     491.834     -89.345
  N     -341.798     490.163     -89.495
  C     -342.081     488.978     -89.965
  N     -343.234     488.401     -89.527
  C     -341.218     488.263     -90.925
  C     -340.120     488.911     -91.318
  O     -337.149     485.784     -92.875
  O     -338.830     487.147     -94.263
  H     -337.966     490.279     -88.587
  H     -337.973     485.506     -92.429
  H     -341.484     487.272     -91.266
  H     -339.421     488.458     -92.010
  H     -338.657     491.897     -90.870
  H     -337.475     489.090     -90.488
  H     -335.384     489.912     -91.313
  H     -336.537     491.600     -93.276
  H     -343.793     488.919     -88.855
  H     -337.170     489.555     -94.547
  H     -343.529     487.473     -89.791
  H     -335.504     489.476     -93.928
  P     -334.199     492.175     -91.018
  C     -333.783     490.888     -88.796
  O     -333.646     492.108     -89.509
  O     -334.087     493.727     -91.394
  O     -333.475     491.312     -91.998
  H     -333.768     493.823     -92.307
  H     -333.371     491.000     -87.815
  H     -333.262     490.111     -89.315
  H     -334.820     490.633     -88.721

 6  7  8  9  10  11  12  13  14  15  16  26  30  31  32  33  35 0
 6-311+G(2d,p)
 ****
 37  38 0
 6-311+G(2d,p)
 ****
 1  2  3  4  5  17  18  19  20  21  22  23  24  25 0
 3-21G
 ****
 27  28  29  34  36  39  40  41  42  43  44  45  46 0
 3-21G
 ****


