%nproc=1
%NoSave
%Mem=1900MB
#P OB98/GEN NMR

erre ene a

0 1
  C       14.713     245.161      65.549
  O       14.483     244.939      66.926
  H       15.411     244.417      65.158
  H       13.764     245.068      65.013
  H       15.113     246.167      65.391
  P       15.765     244.995      67.891
  C       15.446     242.675      69.025
  O       15.376     244.087      69.157
  C       14.293     242.039      69.795
  O       14.284     242.516      71.160
  C       12.917     242.373      69.230
  O       12.566     241.550      68.131
  C       12.039     242.090      70.435
  O       11.863     240.670      70.585
  C       12.898     242.646      71.582
  N        9.950     245.845      74.280
  C       10.013     244.496      74.236
  N       10.840     243.720      73.507
  C       11.674     244.473      72.773
  C       11.733     245.856      72.719
  C       10.812     246.556      73.516
  N       10.722     247.931      73.539
  N       12.708     246.267      71.831
  C       13.239     245.151      71.375
  N       12.626     244.039      71.890
  O       15.728     246.480      68.487
  O       17.072     244.650      67.261
  H       11.517     240.334      69.737
  H       16.580     246.697      68.911
  H        9.301     243.971      74.868
  H       14.056     245.093      70.667
  H       12.779     242.078      72.512
  H       11.042     242.529      70.345
  H       12.838     243.436      68.971
  H       14.454     240.954      69.823
  H       16.400     242.324      69.434
  H        9.937     248.332      74.026
  H       11.256     248.462      72.869
  H       15.386     242.404      67.966
  P       13.271     241.857      66.718
  C       11.672     241.089      64.820
  O       12.738     240.741      65.695
  O       14.789     241.428      66.976
  O       13.150     243.273      66.259
  H       15.399     241.982      66.456
  H       11.428     240.249      64.203
  H       11.971     241.910      64.203
  H       10.815     241.369      65.396

 6  7  8  9  10  11  12  13  14  15  25  28  32  33  34  35 0
 6-311+G(2d,p)
 ****
 36  39  40 0
 6-311+G(2d,p)
 ****
 1  2  3  4  5  16  17  18  19  20  21  22  23  24 0
 3-21G
 ****
 26  27  29  30  31  37  38  41  42  43  44  45  46  47 0
 3-21G
 ****
 48 0
 3-21G
 ****


