%nproc=1
%NoSave
%Mem=1900MB
#P OB98/GEN NMR

erre ene a

0 1
  C       42.978    -261.311     229.359
  O       43.355    -261.942     230.571
  H       43.006    -262.054     228.555
  H       43.686    -260.509     229.121
  H       41.967    -260.911     229.440
  P       43.343    -261.033     231.892
  C       42.715    -262.630     233.850
  O       43.752    -262.003     233.106
  C       43.302    -263.703     234.760
  O       43.778    -264.807     233.949
  C       44.508    -263.246     235.577
  O       44.125    -262.496     236.714
  C       45.154    -264.582     235.918
  O       44.543    -265.185     237.066
  C       44.878    -265.420     234.668
  N       48.387    -268.617     232.809
  C       47.310    -268.820     233.611
  N       46.414    -267.908     234.039
  C       46.707    -266.691     233.560
  C       47.766    -266.333     232.747
  C       48.642    -267.362     232.363
  N       49.763    -267.154     231.588
  N       47.759    -264.970     232.507
  C       46.703    -264.513     233.156
  N       46.034    -265.516     233.798
  O       41.784    -260.766     232.130
  O       44.124    -259.763     231.800
  H       44.867    -266.112     237.098
  H       41.531    -259.912     231.727
  H       47.164    -269.843     233.944
  H       46.390    -263.476     233.188
  H       44.567    -266.448     234.916
  H       46.216    -264.453     236.148
  H       45.191    -262.670     234.942
  H       42.507    -264.079     235.415
  H       42.003    -263.089     233.155
  H       42.191    -261.863     234.445
  H       50.353    -267.936     231.368
  H       50.014    -266.199     231.334
  P       45.142    -261.399     237.288
  C       43.261    -259.599     237.384
  O       44.282    -260.303     238.081
  O       45.623    -260.617     235.974
  O       46.290    -261.956     238.053
  H       46.501    -260.938     235.686
  H       42.785    -258.910     238.050
  H       42.537    -260.295     237.013
  H       43.693    -259.063     236.565

 6  7  8  9  10  11  12  13  14  15  25  28  32  33  34  35 0
 6-311+G(2d,p)
 ****
 36  37  40 0
 6-311+G(2d,p)
 ****
 1  2  3  4  5  16  17  18  19  20  21  22  23  24 0
 3-21G
 ****
 26  27  29  30  31  38  39 41  42  43  44  45  46  47  48 0
 3-21G
 ****


