%nproc=1
%NoSave
%Mem=1900MB
#P OB98/GEN NMR

erre ene a

0 1
  C      -45.941     -10.620     -43.084
  O      -47.152      -9.894     -43.200
  P      -48.555     -10.578     -42.859
  C      -50.951      -9.689     -42.255
  O      -49.568      -9.441     -42.383
  C      -51.624      -8.450     -41.651
  O      -51.187      -8.260     -40.290
  C      -51.282      -7.187     -42.437
  O      -52.287      -6.909     -43.399
  C      -51.181      -6.136     -41.348
  O      -52.490      -5.660     -40.985
  C      -50.565      -6.951     -40.186
  N      -49.102      -7.140     -40.168
  C      -48.279      -6.105     -39.735
  O      -48.697      -5.026     -39.328
  N      -46.930      -6.347     -39.810
  C      -46.350      -7.512     -40.223
  O      -45.167      -7.631     -40.514
  C      -47.264      -8.643     -40.403
  C      -48.576      -8.405     -40.391
  O      -48.245     -11.385     -41.513
  O      -49.115     -11.461     -43.925
  H      -52.364      -4.916     -40.369
  H      -48.079     -12.326     -41.706
  H      -46.326      -5.551     -39.631
  H      -46.841      -9.620     -40.593
  H      -49.273      -9.222     -40.560
  H      -50.847      -6.525     -39.217
  H      -50.626      -5.265     -41.691
  H      -50.300      -7.291     -42.916
  H      -52.709      -8.608     -41.638
  H      -51.118     -10.564     -41.617
  H      -51.384      -9.916     -43.235
  P      -51.915      -6.073     -44.712
  C      -52.420      -6.483     -47.191
  O      -52.157      -7.080     -45.936
  O      -50.584      -5.398     -44.691
  O      -53.115      -5.017     -44.826
  H      -52.839      -4.159     -44.446
  H      -52.386      -7.257     -47.961
  H      -51.670      -5.720     -47.418
  H      -53.416      -6.034     -47.184
  H      -45.120      -9.990     -43.355
  H      -45.970     -11.468     -43.736
  H      -45.819     -10.950     -42.074

 3  4  5  6  7  8  9  10  11  12  13  23  28  29  30  31  32 0
 6-311+G(2d,p)
 ****
 33  34 0
 6-311+G(2d,p)
 ****
 1  2  14  15  16  17  18  19  20  21  22  24  25  26  27 0
 3-21G
 ****
 35  36  37  38  39  40  41  42  43  44  45 0
 3-21G
 ****


