%nproc=1
%NoSave
%Mem=1900MB
#P OB98/GEN NMR

erre ene a

0 1
  C       61.144     122.557    -127.961
  O       60.468     121.962    -129.051
  P       60.162     120.391    -129.040
  C       61.423     118.329    -128.162
  O       61.541     119.627    -128.742
  C       62.496     117.399    -128.726
  O       62.318     117.227    -130.149
  C       63.919     117.917    -128.555
  O       64.364     117.738    -127.223
  C       64.664     117.084    -129.591
  O       64.972     115.781    -129.066
  C       63.622     116.977    -130.718
  N       66.171     117.665    -135.084
  C       66.244     116.702    -134.142
  N       65.555     116.609    -132.982
  C       64.740     117.668    -132.834
  C       64.582     118.742    -133.694
  C       65.327     118.710    -134.886
  N       65.213     119.654    -135.882
  N       63.670     119.645    -133.177
  C       63.295     119.123    -132.023
  N       63.864     117.902    -131.805
  O       59.399     119.880    -130.218
  O       59.329     120.176    -127.690
  H       65.485     115.910    -128.247
  H       58.446     119.818    -127.905
  H       66.942     115.894    -134.346
  H       62.608     119.584    -131.326
  H       63.591     115.968    -131.149
  H       65.607     117.541    -129.903
  H       63.970     118.977    -128.842
  H       62.383     116.415    -128.247
  H       60.430     117.936    -128.396
  H       65.685     119.456    -136.754
  H       64.392     120.253    -135.889
  H       61.523     118.409    -127.075
  P       65.523     118.677    -126.638
  C       68.082     118.784    -126.787
  O       66.917     118.066    -127.144
  O       65.442     118.971    -125.176
  O       65.395     120.019    -127.505
  H       65.656     120.786    -126.961
  H       68.191     119.652    -127.443
  H       68.951     118.132    -126.913
  H       68.035     119.118    -125.745
  H       61.259     123.605    -128.142
  H       62.108     122.106    -127.850
  H       60.576     122.410    -127.066

 3  4  5  6  7  8  9  10  11  12  22  25  29  30  31  32 0
 6-311+G(2d,p)
 ****
 33  36  37 0
 6-311+G(2d,p)
 ****
 1  2  13  14  15  16  17  18  19  20  21  23  24  26 0
 3-21G
 ****
 27  28  34  35  38  39  40  41  42  43  44  45  46  47  48 0
 3-21G
 ****


