%nproc=1
%NoSave
%Mem=1900MB
#P OB98/GEN NMR

erre ene a

0 1
  C     -160.029    -279.183    -498.929
  O     -159.929    -278.194    -499.934
  H     -160.848    -278.919    -498.253
  H     -159.101    -279.236    -498.356
  H     -160.243    -280.159    -499.378
  P     -158.712    -278.354    -500.971
  C     -160.156    -280.027    -502.357
  O     -158.961    -279.799    -501.626
  C     -159.823    -280.262    -503.826
  O     -158.836    -281.308    -503.965
  C     -161.012    -280.717    -504.670
  O     -161.876    -279.646    -505.025
  C     -160.291    -281.287    -505.877
  O     -159.814    -280.214    -506.709
  C     -159.113    -282.029    -505.195
  N     -159.411    -283.436    -504.913
  C     -159.366    -284.320    -505.997
  O     -159.103    -283.909    -507.130
  N     -159.657    -285.644    -505.786
  C     -159.953    -286.056    -504.592
  N     -160.247    -287.381    -504.444
  C     -159.996    -285.168    -503.419
  C     -159.718    -283.889    -503.647
  O     -157.443    -278.611    -500.026
  O     -158.533    -277.238    -501.948
  H     -159.144    -280.594    -507.301
  H     -156.658    -278.848    -500.580
  H     -160.259    -285.556    -502.444
  H     -159.732    -283.175    -502.829
  H     -158.213    -281.981    -505.816
  H     -160.929    -281.920    -506.500
  H     -161.571    -281.522    -504.179
  H     -159.382    -279.338    -504.227
  H     -160.270    -287.955    -505.276
  H     -160.801    -279.146    -502.250
  H     -160.661    -287.755    -503.593
  H     -160.679    -280.902    -501.958
  P     -163.447    -279.968    -505.160
  C     -163.770    -279.198    -502.691
  O     -163.996    -280.212    -503.668
  O     -163.460    -281.430    -505.801
  O     -164.226    -278.985    -505.976
  H     -164.184    -281.521    -506.452
  H     -164.190    -279.504    -501.756
  H     -164.232    -278.287    -503.009
  H     -162.718    -279.042    -502.575

 6  7  8  9  10  11  12  13  14  15  16  26  30  31  32  33  35 0
 6-311+G(2d,p)
 ****
 37  38 0
 6-311+G(2d,p)
 ****
 1  2  3  4  5  17  18  19  20  21  22  23  24  25 0
 3-21G
 ****
 27  28  29  34  36  39  40  41  42  43  44  45  46 0
 3-21G
 ****


