%nproc=1
%NoSave
%Mem=1900MB
#P OB98/GEN NMR

erre ene a

0 1
  C      120.454     -52.245    -172.077
  O      119.436     -53.245    -172.172
  P      117.998     -52.897    -171.546
  C      118.317     -54.473    -169.483
  O      118.134     -53.153    -169.966
  C      117.330     -54.782    -168.353
  O      117.645     -53.963    -167.185
  C      115.860     -54.536    -168.711
  O      115.096     -55.566    -168.065
  C      115.572     -53.190    -168.072
  O      114.183     -52.993    -167.845
  C      116.427     -53.290    -166.805
  N      116.699     -51.989    -166.201
  C      115.900     -51.611    -165.130
  O      114.948     -52.284    -164.738
  N      116.201     -50.408    -164.550
  C      117.154     -49.530    -164.982
  O      117.384     -48.463    -164.424
  C      117.893     -49.933    -166.189
  C      117.633     -51.124    -166.734
  O      117.118     -54.121    -172.073
  O      117.505     -51.543    -171.937
  H      117.602     -54.964    -172.096
  H      114.061     -52.189    -167.300
  H      115.652     -50.130    -163.751
  H      118.615     -49.237    -166.595
  H      118.142     -51.441    -167.634
  H      115.929     -53.920    -166.056
  H      115.935     -52.385    -168.720
  H      115.673     -54.558    -169.788
  H      117.470     -55.830    -168.059
  H      119.336     -54.589    -169.104
  H      118.203     -55.178    -170.313
  P      114.874     -56.954    -168.851
  C      112.806     -56.163    -170.246
  O      114.147     -56.600    -170.233
  O      113.688     -57.585    -167.972
  O      116.074     -57.839    -168.924
  H      112.973     -56.954    -167.790
  H      112.581     -55.754    -171.235
  H      112.637     -55.381    -169.501
  H      112.138     -57.007    -170.054
  H      121.353     -52.607    -172.531
  H      120.639     -52.021    -171.047
  H      120.131     -51.359    -172.582

 3  4  5  6  7  8  9  10  11  12  13  24  28  29  30  31  32 0
 6-311+G(2d,p)
 ****
 33  34 0
 6-311+G(2d,p)
 ****
 1  2  14  15  16  17  18  19  20  21  22  23  25  26  27 0
 3-21G
 ****
 35  36  37  38  39  40  41  42  43  44  45 0
 3-21G
 ****


