%nproc=1
%NoSave
%Mem=1900MB
#P OB98/GEN NMR

erre ene a

0 1
  C      -84.331      75.225    -235.461
  O      -85.470      74.446    -235.078
  P      -86.441      75.060    -233.960
  C      -85.877      73.239    -232.182
  O      -86.878      73.884    -232.964
  C      -86.519      72.502    -231.007
  O      -87.201      71.312    -231.449
  C      -85.510      72.024    -229.975
  O      -85.094      73.093    -229.149
  C      -86.296      70.945    -229.238
  O      -87.018      71.486    -228.120
  C      -87.266      70.419    -230.320
  N      -86.983      69.050    -230.714
  C      -87.666      68.055    -230.005
  O      -88.438      68.361    -229.092
  N      -87.438      66.742    -230.331
  C      -86.585      66.447    -231.262
  N      -86.396      65.129    -231.539
  C      -85.822      67.468    -232.015
  C      -86.068      68.736    -231.691
  O      -87.785      75.376    -234.770
  O      -85.899      76.283    -233.292
  H      -86.340      71.709    -227.451
  H      -88.226      76.159    -234.399
  H      -85.116      67.174    -232.778
  H      -85.549      69.549    -232.190
  H      -88.301      70.457    -229.953
  H      -85.633      70.172    -228.839
  H      -84.645      71.573    -230.480
  H      -87.250      73.173    -230.531
  H      -86.934      64.459    -231.001
  H      -85.157      73.974    -231.815
  H      -85.751      64.788    -232.239
  H      -85.319      72.548    -232.824
  P      -83.527      73.277    -228.893
  C      -83.709      73.602    -226.353
  O      -83.421      74.215    -227.594
  O      -83.111      74.291    -230.067
  O      -82.683      72.047    -228.897
  H      -82.144      74.409    -230.080
  H      -83.400      74.277    -225.550
  H      -83.163      72.662    -226.249
  H      -84.785      73.423    -226.268
  H      -83.775      74.700    -236.209
  H      -83.710      75.392    -234.606
  H      -84.658      76.165    -235.854

 3  4  5  6  7  8  9  10  11  12  13  21  23  27  28  29  30  32 0
 6-311+G(2d,p)
 ****
 34  35 0
 6-311+G(2d,p)
 ****
 1  2  14  15  16  17  18  19  20  22  24  25  26 0
 3-21G
 ****
 31  33  36  37  38  39  40  41  42  43  44  45  46 0
 3-21G
 ****


