%nproc=1
%NoSave
%Mem=1900MB
#P OB98/GEN NMR

erre ene a

0 1
  C     -199.354    -205.574    -559.202
  O     -200.452    -206.317    -559.695
  H     -199.545    -205.324    -558.155
  H     -199.238    -204.645    -559.770
  H     -198.442    -206.170    -559.267
  P     -200.389    -206.753    -561.239
  C     -202.523    -205.357    -561.619
  O     -201.912    -206.636    -561.746
  C     -203.433    -205.323    -560.387
  O     -202.620    -205.067    -559.215
  C     -204.509    -204.237    -560.454
  O     -205.718    -204.733    -559.883
  C     -203.949    -203.128    -559.582
  O     -204.971    -202.294    -559.039
  C     -203.166    -203.921    -558.534
  N     -201.058    -202.432    -554.136
  C     -202.031    -203.323    -554.414
  N     -202.525    -203.676    -555.624
  C     -201.865    -203.028    -556.609
  C     -200.862    -202.089    -556.476
  C     -200.455    -201.783    -555.160
  N     -199.481    -200.859    -554.869
  N     -200.476    -201.621    -557.720
  C     -201.228    -202.277    -558.581
  N     -202.099    -203.126    -557.955
  O     -199.722    -208.057    -561.515
  O     -199.704    -205.473    -561.909
  H     -205.620    -202.867    -558.580
  H     -200.087    -204.643    -561.565
  H     -202.480    -203.818    -553.557
  H     -201.190    -202.165    -559.660
  H     -203.796    -204.274    -557.711
  H     -203.276    -202.498    -560.171
  H     -204.692    -203.894    -561.473
  H     -203.881    -206.318    -560.250
  H     -203.112    -205.126    -562.513
  H     -199.243    -200.711    -553.901
  H     -199.009    -200.381    -555.625
  H     -201.730    -204.611    -561.521
  P     -207.092    -204.488    -560.673
  C     -208.292    -204.402    -558.389
  O     -208.315    -204.911    -559.714
  O     -207.151    -205.026    -562.063
  O     -207.207    -202.887    -560.676
  H     -207.586    -202.599    -561.532
  H     -209.152    -204.753    -557.857
  H     -208.302    -203.332    -558.418
  H     -207.405    -204.737    -557.893

 6  7  8  9  10  11  12  13  14  15  25  28  32  33  34  35 0
 6-311+G(2d,p)
 ****
 36  39  40 0
 6-311+G(2d,p)
 ****
 1  2  3  4  5  16  17  18  19  20  21  22  23  24 0
 3-21G
 ****
 26  27  29  30  31  37  38  41  42  43  44  45  46  47 0
 3-21G
 ****
 48 0
 3-21G
 ****


