%nproc=1
%NoSave
%Mem=1900MB
#P OB98/GEN NMR

erre ene a

0 1
  C      813.783     195.581    -429.824
  O      814.220     196.631    -428.984
  H      813.855     194.640    -429.274
  H      814.430     195.519    -430.706
  H      812.746     195.732    -430.130
  P      814.048     198.141    -429.481
  C      812.869     198.649    -427.242
  O      812.822     198.766    -428.653
  C      812.333     199.920    -426.577
  O      813.192     201.037    -426.945
  C      810.891     200.298    -426.991
  O      810.299     200.978    -425.875
  C      811.170     201.250    -428.142
  O      810.028     201.962    -428.542
  C      812.335     202.047    -427.524
  N      813.077     202.888    -428.466
  C      812.610     204.176    -428.684
  O      811.628     204.666    -428.138
  N      813.337     204.929    -429.580
  C      814.456     204.520    -430.242
  O      815.084     205.240    -431.004
  C      814.891     203.141    -429.974
  C      814.193     202.400    -429.112
  O      813.975     198.331    -430.958
  O      815.316     198.893    -428.854
  H      815.999     199.019    -429.543
  H      809.684     202.470    -427.778
  H      813.019     205.865    -429.736
  H      815.769     202.778    -430.499
  H      814.495     201.382    -428.885
  H      811.961     202.671    -426.701
  H      811.493     200.693    -429.019
  H      810.289     199.430    -427.259
  H      812.414     199.808    -425.485
  H      813.914     198.487    -426.939
  H      812.274     197.782    -426.927
  P      809.027     200.416    -425.075
  C      810.586     199.623    -423.174
  O      809.540     199.273    -424.055
  O      807.904     199.980    -425.956
  O      808.569     201.619    -424.110
  H      807.622     201.526    -423.911
  H      810.829     198.783    -422.557
  H      810.275     200.440    -422.557
  H      811.447     199.911    -423.740

 6  7  8  9  10  11  12  13  14  15  16  27  31  32  33  34  35 0
 6-311+G(2d,p)
 ****
 36  37 0
 6-311+G(2d,p)
 ****
 1  2  3  4  5  17  18  19  20  21  22  23  24  25 0
 3-21G
 ****
 26  28  29  30  38  39  40  41  42  43  44  45 0
 3-21G
 ****


