%nproc=1
%NoSave
%Mem=1900MB
#P OB98/GEN NMR

erre ene a

0 1
  C      293.749     199.091     208.849
  O      294.312     199.835     209.916
  P      293.731     201.271     210.310
  C      291.796     200.216     211.740
  O      292.198     201.101     210.716
  C      290.884     200.967     212.715
  O      291.532     202.168     213.182
  C      289.565     201.369     212.054
  O      288.561     200.400     212.307
  C      289.278     202.719     212.683
  O      288.675     202.552     213.981
  C      290.703     203.306     212.827
  N      291.304     203.960     211.650
  C      292.503     204.655     211.783
  O      293.126     204.742     212.837
  N      292.957     205.284     210.651
  C      292.362     205.241     209.422
  O      292.636     205.991     208.494
  C      291.267     204.278     209.285
  C      290.779     203.711     210.390
  O      293.660     202.030     208.904
  O      294.528     202.032     211.317
  H      287.797     202.156     213.838
  H      294.431     202.614     208.788
  H      293.750     205.905     210.776
  H      290.855     204.106     208.298
  H      289.941     203.022     210.317
  H      290.749     204.024     213.654
  H      288.564     203.287     212.090
  H      289.711     201.509     210.974
  H      290.691     200.327     213.585
  H      292.676     199.825     212.263
  H      291.270     199.359     211.310
  P      287.225     200.397     211.431
  C      287.661     199.117     209.253
  O      287.721     200.369     209.906
  O      286.234     201.464     211.764
  O      286.627     198.932     211.676
  H      285.932     198.968     212.368
  H      287.851     199.267     208.188
  H      286.674     198.664     209.380
  H      288.430     198.454     209.661
  H      294.274     198.164     208.744
  H      293.831     199.652     207.941
  H      292.718     198.895     209.056

 3  4  5  6  7  8  9  10  11  12  13  23  28  29  30  31  32 0
 6-311+G(2d,p)
 ****
 33  34 0
 6-311+G(2d,p)
 ****
 1  2  14  15  16  17  18  19  20  21  22  24  25  26  27 0
 3-21G
 ****
 35  36  37  38  39  40  41  42  43  44  45 0
 3-21G
 ****


