%nproc=1
%NoSave
%Mem=1900MB
#P OB98/GEN NMR

erre ene a

0 1
  C       44.195      45.497     -57.219
  O       43.019      45.439     -56.442
  H       44.336      44.534     -57.717
  H       45.058      45.682     -56.574
  H       44.128      46.276     -57.982
  P       42.422      46.795     -55.831
  C       39.843      46.707     -55.741
  O       41.062      46.383     -55.085
  C       39.398      45.544     -56.629
  O       39.044      44.420     -55.766
  C       38.168      45.872     -57.499
  O       38.288      45.170     -58.741
  C       37.046      45.276     -56.672
  O       35.890      45.048     -57.437
  C       37.714      44.012     -56.136
  N       36.971      43.446     -55.015
  C       35.837      42.704     -55.325
  O       35.436      42.517     -56.473
  N       35.119      42.234     -54.259
  C       35.358      42.522     -52.948
  O       34.636      42.140     -52.038
  C       36.541      43.358     -52.682
  C       37.285      43.768     -53.711
  O       42.289      47.938     -56.782
  O       43.390      47.133     -54.601
  H       35.522      45.896     -57.747
  H       43.327      48.080     -54.371
  H       34.299      41.685     -54.467
  H       36.749      43.618     -51.654
  H       38.153      44.400     -53.555
  H       37.807      43.255     -56.925
  H       36.779      45.954     -55.855
  H       38.043      46.942     -57.683
  H       40.244      45.219     -57.246
  H       40.011      47.601     -56.352
  H       39.074      46.925     -54.992
  P       38.750      45.909     -60.089
  C       40.380      44.259     -61.190
  O       39.077      44.833     -61.239
  O       39.825      46.929     -59.890
  O       37.417      46.622     -60.623
  H       37.628      47.538     -60.887
  H       40.493      43.562     -61.994
  H       40.512      43.752     -60.257
  H       41.114      45.032     -61.283

 6  7  8  9  10  11  12  13  14  15  16  26  31  32  33  34  35 0
 6-311+G(2d,p)
 ****
 36  37 0
 6-311+G(2d,p)
 ****
 1  2  3  4  5  17  18  19  20  21  22  23  24  25 0
 3-21G
 ****
 27  28  29  30  38  39  40  41  42  43  44  45 0
 3-21G
 ****


