%nproc=1
%NoSave
%Mem=1900MB
#P OB98/GEN NMR

erre ene a

0 1
  C     -529.226    -352.263     336.343
  O     -530.072    -351.295     335.757
  H     -528.186    -352.091     336.048
  H     -529.295    -352.182     337.434
  H     -529.534    -353.271     336.047
  P     -530.122    -351.253     334.155
  C     -531.793    -350.168     332.484
  O     -531.589    -350.716     333.778
  C     -533.246    -349.716     332.344
  O     -534.130    -350.857     332.403
  C     -533.716    -348.770     333.443
  O     -533.304    -347.425     333.207
  C     -535.218    -348.921     333.316
  O     -535.689    -348.166     332.181
  C     -535.362    -350.425     333.051
  N     -538.769    -351.884     336.571
  C     -538.878    -351.075     335.501
  N     -537.918    -350.735     334.618
  C     -536.751    -351.322     334.926
  C     -536.493    -352.164     335.990
  C     -537.576    -352.449     336.839
  N     -537.473    -353.269     337.950
  N     -535.164    -352.546     336.005
  C     -534.642    -351.970     334.939
  N     -535.560    -351.207     334.256
  O     -530.183    -352.799     333.736
  O     -529.004    -350.520     333.487
  H     -536.643    -348.352     332.092
  H     -529.891    -352.906     332.813
  H     -539.858    -350.643     335.330
  H     -533.616    -352.068     334.619
  H     -536.191    -350.657     332.373
  H     -535.762    -348.553     334.191
  H     -533.400    -349.117     334.435
  H     -533.359    -349.251     331.354
  H     -531.583    -350.936     331.730
  H     -538.246    -353.258     338.588
  H     -536.552    -353.571     338.234
  H     -531.115    -349.324     332.337
  P     -533.506    -346.375     334.401
  C     -533.252    -343.796     334.604
  O     -533.010    -344.966     333.836
  O     -532.359    -346.787     335.448
  O     -534.865    -346.386     335.026
  H     -532.608    -346.527     336.354
  H     -532.860    -342.944     334.089
  H     -532.772    -343.889     335.556
  H     -534.306    -343.674     334.746

 6  7  8  9  10  11  12  13  14  15  25  28  32  33  34  35 0
 6-311+G(2d,p)
 ****
 36  39  40 0
 6-311+G(2d,p)
 ****
 1  2  3  4  5  16  17  18  19  20  21  22  23  24 0
 3-21G
 ****
 26  27  29  30  31  37  38  41  42  43  44  45  46  47 0
 3-21G
 ****
 48 0
 3-21G
 ****


