%nproc=1
%NoSave
%Mem=1900MB
#P OB98/GEN NMR

erre ene a

0 1
  C     -131.920     204.549     339.120
  O     -131.767     203.152     339.029
  P     -132.961     202.112     339.209
  C     -131.560     201.012     341.122
  O     -132.403     200.826     339.996
  C     -130.188     200.355     340.900
  O     -129.374     200.575     342.077
  C     -130.316     198.834     340.717
  O     -129.481     198.299     339.699
  C     -130.118     198.305     342.131
  O     -129.741     196.937     342.181
  C     -129.098     199.294     342.694
  N     -127.123     197.803     347.130
  C     -126.655     197.574     345.851
  N     -125.639     196.695     345.736
  N     -127.166     198.141     344.783
  C     -128.249     198.909     345.042
  C     -128.799     199.208     346.265
  C     -128.209     198.603     347.441
  O     -128.661     198.687     348.582
  N     -129.934     199.970     346.143
  C     -130.089     200.101     344.839
  N     -129.107     199.451     344.132
  O     -133.837     201.881     338.023
  O     -133.856     202.836     340.344
  H     -128.980     196.822     341.591
  H     -134.791     202.621     340.153
  H     -126.744     197.272     347.907
  H     -130.905     200.634     344.361
  H     -128.076     199.011     342.426
  H     -131.072     198.392     342.656
  H     -125.329     196.135     346.519
  H     -131.329     198.569     340.381
  H     -125.449     196.325     344.810
  H     -129.692     200.839     340.052
  H     -132.071     200.544     341.972
  H     -131.446     202.081     341.350
  P     -129.887     197.403     338.444
  C     -128.031     195.703     338.941
  O     -128.606     196.564     337.975
  O     -130.092     198.436     337.238
  O     -131.126     196.583     338.633
  H     -130.854     198.167     336.696
  H     -127.033     195.413     338.601
  H     -128.646     194.806     339.044
  H     -127.945     196.209     339.908
  H     -130.974     205.023     338.962
  H     -132.289     204.805     340.091
  H     -132.614     204.881     338.376

 3  4  5  6  7  8  9  10  11  12  23  26  30  31 0
 6-311+G(2d,p)
 ****
 33  35  36  37  38 0
 6-311+G(2d,p)
 ****
 1  2  13  14  15  16  17  18  19  20  21  22  24  25 0
 3-21G
 ****
 27  28  29  32  34  39  40  41  42  43  44  45  46  47  48  49 0
 3-21G
 ****


