%nproc=1
%NoSave
%Mem=1900MB
#P OB98/GEN NMR

erre ene a

0 1
  C       -2.886      29.969      13.729
  O       -1.636      29.397      14.119
  P       -0.471      29.167      13.039
  C       -1.351      26.895      12.257
  O       -1.026      28.223      11.862
  C       -2.051      26.087      11.157
  O       -1.175      25.889      10.021
  C       -2.545      24.703      11.591
  O       -3.740      24.462      10.843
  C       -1.422      23.799      11.123
  O       -1.819      22.437      11.024
  C       -1.035      24.474       9.801
  N        0.315      24.121       9.372
  C        0.479      22.882       8.754
  O       -0.476      22.112       8.642
  N        1.731      22.518       8.321
  C        2.744      23.286       8.574
  N        3.963      22.862       8.143
  C        2.630      24.566       9.301
  C        1.397      24.921       9.656
  O        0.838      28.736      13.614
  O       -0.326      30.595      12.324
  H       -1.284      22.011      10.320
  H        0.596      30.715      12.028
  H        3.507      25.159       9.512
  H        1.208      25.844      10.189
  H       -1.735      24.191       9.004
  H       -0.587      23.849      11.832
  H       -2.733      24.625      12.664
  H       -2.898      26.687      10.802
  H        4.002      21.967       7.671
  H       -2.004      26.944      13.135
  H        4.827      23.323       8.385
  H       -0.434      26.382      12.567
  P       -5.147      24.189      11.554
  C       -5.261      21.735      12.266
  O       -4.901      23.049      12.649
  O       -6.281      23.919      10.619
  O       -5.424      25.497      12.438
  H       -6.369      25.533      12.674
  H       -4.856      21.029      12.994
  H       -4.860      21.495      11.277
  H       -6.350      21.642      12.248
  H       -3.527      30.041      14.583
  H       -3.346      29.349      12.989
  H       -2.720      30.945      13.324

 3  4  5  6  7  8  9  10  11  12  13  23  27  28  29  30  32 0
 6-311+G(2d,p)
 ****
 34  35 0
 6-311+G(2d,p)
 ****
 1  2  14  15  16  17  18  19  20  21  22  24  25  26 0
 3-21G
 ****
 31  33  36  37  38  39  40  41  42  43  44  45  46 0
 3-21G
 ****


