%nproc=1
%NoSave
%Mem=1900MB
#P OB98/GEN NMR

erre ene a

0 1
  C     -726.604     326.584    -445.211
  O     -725.880     325.784    -444.265
  P     -724.421     325.294    -444.705
  C     -724.902     322.862    -443.942
  O     -724.051     323.989    -443.844
  C     -724.477     321.790    -442.932
  O     -723.104     321.368    -443.157
  C     -724.530     322.265    -441.485
  O     -725.866     322.311    -441.018
  C     -723.664     321.205    -440.817
  O     -724.407     319.989    -440.601
  C     -722.572     320.963    -441.875
  N     -718.164     320.918    -439.266
  C     -719.193     320.047    -439.315
  N     -720.333     320.137    -440.033
  C     -720.349     321.254    -440.775
  C     -719.371     322.238    -440.831
  C     -718.233     322.044    -440.024
  N     -717.195     322.957    -439.957
  N     -719.744     323.253    -441.686
  C     -720.937     322.893    -442.130
  N     -721.346     321.686    -441.618
  O     -723.452     326.426    -444.119
  O     -724.256     325.154    -446.182
  H     -725.198     320.223    -440.074
  H     -723.105     326.984    -444.834
  H     -719.090     319.163    -438.699
  H     -721.547     323.468    -442.827
  H     -722.302     319.902    -441.960
  H     -723.270     321.520    -439.844
  H     -724.064     323.246    -441.389
  H     -725.131     320.909    -443.069
  H     -724.885     322.455    -444.957
  H     -716.453     322.770    -439.302
  H     -717.286     323.824    -440.463
  H     -725.941     323.183    -443.755
  P     -726.542     323.743    -440.820
  C     -725.135     323.853    -438.667
  O     -726.424     324.011    -439.243
  O     -728.089     323.410    -441.012
  O     -725.981     324.830    -441.698
  H     -728.354     322.613    -440.521
  H     -725.194     324.099    -437.602
  H     -724.424     324.541    -439.150
  H     -724.792     322.820    -438.790
  H     -727.557     326.846    -444.801
  H     -726.745     326.028    -446.114
  H     -726.050     327.475    -445.423

 3  4  5  6  7  8  9  10  11  12  22  25  29  30  31  32 0
 6-311+G(2d,p)
 ****
 33  36  37 0
 6-311+G(2d,p)
 ****
 1  2  13  14  15  16  17  18  19  20  21  23  24  26 0
 3-21G
 ****
 27  28  34  35  38  39  40  41  42  43  44  45  46  47  48 0
 3-21G
 ****


