%nproc=1
%NoSave
%Mem=1900MB
#P OB98/GEN NMR

erre ene a

0 1
  C      -12.915    -191.987    -214.280
  O      -12.863    -191.614    -215.661
  P      -12.536    -190.070    -215.971
  C      -15.024    -189.352    -215.749
  O      -13.686    -189.173    -215.294
  C      -15.810    -188.037    -215.736
  O      -15.936    -187.570    -214.369
  C      -15.174    -186.898    -216.541
  O      -16.218    -186.136    -217.162
  C      -14.547    -186.021    -215.472
  O      -14.358    -184.681    -215.916
  C      -15.568    -186.182    -214.348
  N      -13.594    -182.463    -211.543
  C      -14.134    -182.421    -212.815
  N      -14.123    -181.217    -213.434
  N      -14.638    -183.460    -213.426
  C      -14.612    -184.589    -212.674
  C      -14.115    -184.757    -211.398
  C      -13.522    -183.602    -210.754
  O      -12.981    -183.591    -209.648
  N      -14.267    -186.051    -210.969
  C      -14.843    -186.666    -211.982
  N      -15.067    -185.823    -213.043
  O      -12.815    -189.945    -217.541
  O      -11.137    -189.672    -215.633
  H      -14.079    -184.157    -215.140
  H      -12.020    -189.608    -217.996
  H      -13.200    -181.635    -211.129
  H      -15.099    -187.716    -212.014
  H      -16.472    -185.589    -214.543
  H      -13.569    -186.429    -215.191
  H      -13.810    -180.366    -212.998
  H      -14.452    -187.225    -217.294
  H      -14.555    -181.155    -214.350
  H      -16.822    -188.242    -216.103
  H      -15.529    -190.078    -215.110
  H      -14.993    -189.763    -216.763
  P      -16.621    -186.566    -218.659
  C      -15.430    -184.608    -219.892
  O      -15.459    -185.994    -219.603
  O      -17.877    -185.623    -218.983
  O      -16.942    -188.015    -218.813
  H      -18.457    -186.050    -219.644
  H      -16.116    -184.037    -219.262
  H      -15.708    -184.459    -220.940
  H      -14.414    -184.238    -219.736
  H      -13.139    -193.030    -214.201
  H      -13.676    -191.420    -213.786
  H      -11.969    -191.789    -213.821

 3  4  5  6  7  8  9  10  11  12  23  26  30  31  33  0
 6-311+G(2d,p)
 ****
 35  36  37  38 0
 6-311+G(2d,p)
 ****
 1  2  13  14  15  16  17  18  19  20  21  22  24  25  27  28  29 0
 3-21G
 ****
 32  34  39  40  41  42  43  44  45  46  47  48  49 0
 3-21G
 ****


