%nproc=1
%NoSave
%Mem=1900MB
#P OB98/GEN NMR

erre ene a

0 1
  C      206.333     377.273     411.257
  O      207.135     376.309     410.602
  H      206.424     377.133     412.333
  H      205.282     377.149     410.971
  H      206.673     378.279     410.996
  P      207.100     376.307     408.999
  C      205.185     374.584     408.826
  O      205.577     375.942     408.637
  C      203.724     374.389     408.422
  O      203.591     374.700     407.007
  C      203.217     372.955     408.626
  O      201.843     372.995     409.020
  C      203.309     372.355     407.235
  O      202.433     371.240     407.065
  C      202.982     373.564     406.360
  N      201.843     371.755     401.744
  C      201.091     371.946     402.852
  N      201.475     372.457     404.041
  C      202.764     372.843     403.997
  C      203.651     372.724     402.943
  C      203.139     372.135     401.768
  N      203.901     371.911     400.645
  N      204.897     373.191     403.300
  C      204.764     373.608     404.545
  N      203.496     373.402     405.012
  O      208.132     375.465     408.328
  O      207.168     377.873     408.664
  H      202.591     370.849     406.182
  H      206.550     378.382     409.219
  H      200.054     371.639     402.780
  H      205.545     374.050     405.157
  H      201.904     373.745     406.280
  H      204.332     372.006     407.046
  H      203.795     372.393     409.360
  H      203.103     375.113     408.964
  H      205.314     374.297     409.878
  H      203.456     371.483     399.845
  H      204.871     372.187     400.634
  H      205.840     373.956     408.207
  P      201.461     372.574     410.524
  C      200.810     370.106     410.151
  O      201.756     371.008     410.713
  O      200.117     373.017     410.998
  O      202.629     373.250     411.393
  H      202.236     373.643     412.202
  H      201.118     369.100     410.344
  H      200.750     370.264     409.094
  H      199.850     370.276     410.592

 6  7  8  9  10  11  12  13  14  15  25  28  32  33  34  35 0
 6-311+G(2d,p)
 ****
 36  39  40 0
 6-311+G(2d,p)
 ****
 1  2  3  4  5  16  17  18  19  20  21  22  23  24 0
 3-21G
 ****
 26  27  29  30  31  37  38  41  42  43  44  45  46  47 0
 3-21G
 ****
 48 0
 3-21G
 ****


