%nproc=1
%NoSave
%Mem=1900MB
#P OB98/GEN NMR

erre ene a

0 1
  C      882.981    -679.306     106.002
  O      882.291    -679.156     104.779
  H      883.955    -678.812     105.946
  H      882.397    -678.817     106.796
  H      883.100    -680.359     106.265
  P      882.891    -679.954     103.519
  C      883.935    -677.968     102.179
  O      884.167    -679.097     103.032
  C      885.262    -677.270     101.858
  O      886.198    -678.261     101.351
  C      885.123    -676.171     100.800
  O      885.981    -675.072     101.146
  C      885.630    -676.830      99.522
  O      886.115    -675.895      98.583
  C      886.686    -677.786     100.083
  N      890.337    -680.351      97.593
  C      890.389    -679.357      98.508
  N      889.376    -678.723      99.127
  C      888.200    -679.272      98.765
  C      887.987    -680.297      97.850
  C      889.125    -680.841      97.230
  N      889.069    -681.824      96.289
  N      886.631    -680.532      97.721
  C      886.034    -679.686      98.522
  N      886.949    -678.885      99.185
  O      881.789    -679.672     102.380
  O      883.133    -681.409     103.719
  H      886.738    -675.290      99.041
  H      881.034    -680.264     102.515
  H      891.403    -679.013      98.757
  H      884.974    -679.582      98.681
  H      887.654    -677.270     100.259
  H      884.818    -677.405      99.058
  H      884.101    -675.807     100.689
  H      885.683    -676.874     102.792
  H      883.268    -677.273     102.705
  H      889.926    -682.119      95.859
  H      888.165    -682.157      95.972
  H      883.455    -678.302     101.252
  P      885.345    -673.924     102.074
  C      883.823    -672.734     100.318
  O      883.906    -673.548     101.479
  O      886.244    -672.640     101.708
  O      885.382    -674.229     103.523
  H      886.537    -672.207     102.532
  H      882.795    -672.583     100.061
  H      884.327    -673.217      99.507
  H      884.284    -671.788     100.512

 6  7  8  9  10  11  12  13  14  15  25  28  32  33  34  35 0
 6-311+G(2d,p)
 ****
 36  39  40 0
 6-311+G(2d,p)
 ****
 1  2  3  4  5  16  17  18  19  20  21  22  23  24 0
 3-21G
 ****
 26  27  29  30  31  37  38  41  42  43  44  45  46  47 0
 3-21G
 ****
 48 0
 3-21G
 ****


