%nproc=1
%NoSave
%Mem=1900MB
#P OB98/GEN NMR

erre ene a

0 1
  C      146.165    -150.353    -102.832
  O      145.148    -149.589    -102.204
  P      144.055    -150.372    -101.327
  C      141.711    -151.409    -101.799
  O      142.858    -150.760    -102.324
  C      140.597    -151.460    -102.848
  O      140.124    -150.110    -103.090
  C      141.017    -152.043    -104.202
  O      139.871    -152.709    -104.746
  C      141.324    -150.807    -105.025
  O      141.272    -151.052    -106.428
  C      140.263    -149.849    -104.504
  N      141.413    -146.352    -107.975
  C      141.188    -147.708    -108.126
  N      141.219    -148.184    -109.389
  N      140.956    -148.525    -107.128
  C      140.940    -147.901    -105.926
  C      141.184    -146.576    -105.646
  C      141.405    -145.680    -106.760
  O      141.520    -144.460    -106.679
  N      141.169    -146.337    -104.298
  C      140.836    -147.498    -103.769
  N      140.640    -148.464    -104.721
  O      143.431    -149.213    -100.420
  O      144.572    -151.519    -100.518
  H      141.361    -150.192    -106.885
  H      143.879    -149.165     -99.554
  H      141.570    -145.773    -108.782
  H      140.715    -147.695    -102.718
  H      139.285    -150.004    -104.978
  H      142.334    -150.447    -104.787
  H      141.363    -147.609    -110.207
  H      141.864    -152.734    -104.140
  H      141.024    -149.169    -109.531
  H      139.760    -152.030    -102.431
  H      141.348    -150.842    -100.934
  H      141.979    -152.415    -101.464
  P      140.113    -153.811    -105.884
  C      139.317    -154.167    -108.322
  O      139.430    -153.277    -107.229
  O      139.145    -155.008    -105.431
  O      141.524    -154.287    -106.005
  H      139.536    -155.862    -105.691
  H      138.513    -153.818    -108.975
  H      139.087    -155.184    -107.995
  H      140.253    -154.169    -108.887
  H      146.815    -149.701    -103.377
  H      145.719    -151.056    -103.504
  H      146.728    -150.878    -102.088

 3  4  5  6  7  8  9  10  11  12  23  26  30  31 0
 6-311+G(2d,p)
 ****
 33  35  36  37  38 0
 6-311+G(2d,p)
 ****
 1  2  13  14  15  16  17  18  19  20  21  22  24  25 0
 3-21G
 ****
 27  28  29  32  34  39  40  41  42  43  44  45  46  47  48  49 0
 3-21G
 ****


