%nproc=1
%NoSave
%Mem=1900MB
#P OB98/GEN NMR

erre ene a

0 1
  C       58.080      87.800     147.201
  O       57.160      87.678     148.271
  P       57.001      88.832     149.379
  C       58.586      87.627     151.031
  O       58.351      88.782     150.242
  C       59.918      87.752     151.776
  O       60.969      88.004     150.807
  C       59.957      88.888     152.810
  O       60.774      88.440     153.901
  C       60.645      90.009     152.055
  O       61.233      90.972     152.915
  C       61.646      89.217     151.204
  N       62.109      89.964     150.041
  C       63.452      90.342     150.006
  O       64.212      90.075     150.936
  N       63.916      91.025     148.908
  C       63.091      91.373     147.968
  N       63.609      91.997     146.872
  C       61.644      91.090     148.017
  C       61.233      90.371     149.057
  O       55.747      88.764     150.179
  O       57.182      90.193     148.560
  H       61.619      91.681     152.366
  H       56.341      90.508     148.142
  H       60.993      91.427     147.223
  H       60.196      90.093     149.167
  H       62.503      88.911     151.815
  H       59.912      90.524     151.422
  H       58.966      89.152     153.187
  H       60.136      86.790     152.256
  H       64.621      92.018     146.796
  H       58.634      86.758     150.368
  H       63.109      92.001     145.990
  H       57.755      87.482     151.728
  P       60.398      88.928     155.382
  C       62.511      90.366     155.839
  O       61.113      90.340     155.637
  O       61.288      87.938     156.283
  O       58.961      88.817     155.774
  H       60.872      87.846     157.163
  H       62.823      91.405     155.987
  H       63.033      89.969     154.965
  H       62.780      89.789     156.727
  H       58.027      86.928     146.584
  H       59.071      87.900     147.592
  H       57.838      88.664     146.619

 3  4  5  6  7  8  9  10  11  12  13  23  27  28  29  30  32 0
 6-311+G(2d,p)
 ****
 34  35 0
 6-311+G(2d,p)
 ****
 1  2  14  15  16  17  18  19  20  21  22  24  25  26 0
 3-21G
 ****
 31  33  36  37  38  39  40  41  42  43  44  45  46 0
 3-21G
 ****


