%nproc=1
%NoSave
%Mem=1900MB
#P OB98/GEN NMR

erre ene a

0 1
  C      119.561    -304.499     180.565
  O      118.581    -303.852     179.762
  P      117.143    -304.544     179.616
  C      116.068    -303.346     181.649
  O      116.487    -304.579     181.081
  C      114.941    -303.560     182.659
  O      114.591    -302.282     183.256
  C      113.655    -304.152     182.068
  O      113.059    -304.972     183.079
  C      112.787    -302.927     181.846
  O      111.403    -303.256     181.752
  C      113.172    -302.095     183.066
  N      109.687    -298.427     183.800
  C      109.691    -299.740     184.120
  N      110.657    -300.652     183.892
  C      111.702    -300.091     183.261
  C      111.824    -298.775     182.841
  C      110.752    -297.917     183.139
  N      110.748    -296.579     182.822
  N      113.032    -298.582     182.203
  C      113.628    -299.756     182.237
  N      112.873    -300.690     182.888
  O      117.519    -306.076     179.337
  O      116.277    -303.993     178.535
  H      111.268    -303.769     180.932
  H      117.281    -306.318     178.420
  H      108.803    -300.100     184.633
  H      114.594    -299.979     181.810
  H      112.662    -302.435     183.978
  H      113.079    -302.427     180.914
  H      113.810    -304.729     181.151
  H      115.319    -304.199     183.468
  H      115.698    -302.700     180.848
  H      110.007    -296.004     183.188
  H      111.611    -296.151     182.503
  H      116.918    -302.857     182.128
  P      112.244    -306.261     182.581
  C      114.516    -307.499     182.778
  O      113.326    -307.307     182.037
  O      111.509    -305.745     181.256
  O      111.273    -306.790     183.584
  H      110.686    -306.250     181.114
  H      114.834    -308.539     182.672
  H      114.377    -307.273     183.842
  H      115.298    -306.845     182.376
  H      120.461    -303.920     180.565
  H      119.762    -305.472     180.167
  H      119.197    -304.592     181.567

 3  4  5  6  7  8  9  10  11  12  22  25  29  30  31  32 0
 6-311+G(2d,p)
 ****
 33  36  37 0
 6-311+G(2d,p)
 ****
 1  2  13  14  15  16  17  18  19  20  21  23  24  26 0
 3-21G
 ****
 27  28  34  35  38  39  40  41  42  43  44  45  46  47  48 0
 3-21G
 ****


