%nproc=1
%NoSave
%Mem=1900MB
#P OB98/GEN NMR

erre ene a

0 1
  C     -448.400     405.480    -257.406
  O     -447.401     405.519    -258.404
  H     -447.953     405.289    -256.425
  H     -448.906     406.449    -257.378
  H     -449.131     404.704    -257.638
  P     -446.465     404.222    -258.525
  C     -447.623     402.842    -260.392
  O     -447.423     403.021    -258.993
  C     -446.728     401.725    -260.917
  O     -447.120     400.458    -260.322
  C     -446.808     401.494    -262.419
  O     -446.040     402.447    -263.145
  C     -446.213     400.090    -262.528
  O     -444.776     400.174    -262.481
  C     -446.736     399.412    -261.251
  N     -448.332     394.618    -262.214
  C     -447.103     395.138    -262.033
  N     -446.742     396.419    -261.790
  C     -447.833     397.204    -261.719
  C     -449.154     396.814    -261.883
  C     -449.391     395.463    -262.138
  N     -450.657     394.936    -262.331
  N     -450.001     397.894    -261.731
  C     -449.211     398.921    -261.486
  N     -447.887     398.559    -261.479
  O     -446.141     403.849    -257.001
  O     -445.221     404.393    -259.326
  H     -444.553     400.714    -261.700
  H     -445.228     403.503    -256.949
  H     -446.281     394.427    -262.086
  H     -449.548     399.937    -261.309
  H     -445.957     398.813    -260.766
  H     -446.487     399.582    -263.450
  H     -447.855     401.469    -262.767
  H     -445.698     401.937    -260.608
  H     -447.375     403.770    -260.915
  H     -450.774     393.941    -262.321
  H     -451.448     395.579    -262.278
  H     -448.674     402.597    -260.568
  P     -446.764     403.225    -264.351
  C     -446.604     405.617    -263.324
  O     -447.445     404.519    -263.674
  O     -448.021     402.285    -264.684
  O     -445.926     403.479    -265.544
  H     -448.300     402.428    -265.607
  H     -447.196     406.395    -262.888
  H     -446.118     405.988    -264.202
  H     -445.868     405.292    -262.619

 6  7  8  9  10  11  12  13  14  15  25  28  32  33  34  35 0
 6-311+G(2d,p)
 ****
 36  39  40 0
 6-311+G(2d,p)
 ****
 1  2  3  4  5  16  17  18  19  20  21  22  23  24 0
 3-21G
 ****
 26  27  29  30  31  37  38  41  42  43  44  45  46  47  48 0
 3-21G
 ****


