%nproc=1
%NoSave
%Mem=1900MB
#P OB98/GEN NMR

erre ene a

0 1
  C     -241.994     -67.876     -75.990
  O     -242.434     -66.687     -75.335
  P     -243.999     -66.462     -75.086
  C     -243.826     -65.728     -72.617
  O     -244.192     -65.352     -73.939
  C     -242.356     -65.370     -72.330
  O     -242.106     -63.988     -72.710
  C     -241.988     -65.529     -70.848
  O     -240.806     -66.309     -70.649
  C     -241.930     -64.097     -70.341
  O     -241.118     -63.949     -69.190
  C     -241.506     -63.313     -71.592
  N     -241.910     -61.901     -71.513
  C     -241.266     -61.125     -70.562
  O     -240.457     -61.580     -69.751
  N     -241.631     -59.803     -70.520
  C     -242.611     -59.223     -71.270
  O     -242.933     -58.047     -71.164
  C     -243.299     -60.111     -72.220
  C     -242.921     -61.391     -72.296
  O     -244.818     -67.697     -74.913
  O     -244.458     -65.664     -76.407
  H     -241.209     -63.027     -68.862
  H     -245.342     -65.994     -76.661
  H     -241.160     -59.221     -69.844
  H     -244.095     -59.690     -72.819
  H     -243.418     -62.068     -72.978
  H     -240.421     -63.332     -71.717
  H     -242.945     -63.791     -70.063
  H     -242.759     -66.076     -70.299
  H     -241.735     -66.021     -72.953
  H     -243.959     -66.802     -72.499
  H     -244.507     -65.251     -71.905
  P     -240.760     -67.698     -69.855
  C     -239.613     -69.127     -71.694
  O     -239.520     -68.546     -70.406
  O     -242.050     -68.442     -69.782
  O     -240.290     -67.262     -68.391
  H     -240.785     -67.776     -67.725
  H     -238.891     -69.947     -71.759
  H     -239.375     -68.380     -72.449
  H     -240.617     -69.526     -71.874
  H     -240.927     -67.863     -76.073
  H     -242.428     -67.926     -76.967
  H     -242.297     -68.730     -75.421

 3  4  5  6  7  8  9  10  11  12  13  23  28  29  30  31  32 0
 6-311+G(2d,p)
 ****
 33  34 0
 6-311+G(2d,p)
 ****
 1  2  14  15  16  17  18  19  20  21  22  24  25  26  27 0
 3-21G
 ****
 35  36  37  38  39  40  41  42  43  44  45 0
 3-21G
 ****


