%nproc=1
%NoSave
%Mem=1900MB
#P OB98/GEN NMR

erre ene a

0 1
  C      -58.777     440.753    1000.549
  O      -58.048     441.011    1001.732
  H      -59.708     440.245    1000.823
  H      -58.207     440.099     999.886
  H      -59.031     441.684    1000.030
  P      -56.634     441.755    1001.604
  C      -56.918     442.627    1004.038
  O      -56.114     441.879    1003.133
  C      -56.278     442.646    1005.422
  O      -54.908     443.114    1005.362
  C      -56.957     443.568    1006.430
  O      -58.191     443.080    1006.910
  C      -55.887     443.590    1007.516
  O      -55.914     442.359    1008.244
  C      -54.599     443.708    1006.654
  N      -54.160     445.092    1006.474
  C      -53.167     445.550    1007.358
  O      -52.698     444.806    1008.239
  N      -52.723     446.846    1007.247
  C      -53.245     447.634    1006.357
  N      -52.785     448.918    1006.294
  C      -54.312     447.202    1005.420
  C      -54.711     445.931    1005.545
  O      -56.624     443.027    1000.821
  O      -55.647     440.642    1001.025
  H      -56.745     442.370    1008.784
  H      -54.748     441.051    1000.916
  H      -54.734     447.905    1004.713
  H      -55.494     445.546    1004.888
  H      -53.784     443.124    1007.095
  H      -56.028     444.418    1008.231
  H      -57.066     444.584    1006.022
  H      -56.248     441.609    1005.779
  H      -52.059     449.180    1006.946
  H      -57.909     442.172    1004.071
  H      -53.179     449.611    1005.673
  H      -57.015     443.666    1003.679
  P      -59.412     444.120    1006.962
  C      -61.035     442.105    1006.565
  O      -60.723     443.266    1007.329
  O      -59.631     444.516    1005.426
  O      -59.192     445.318    1007.844
  H      -59.186     445.367    1005.225
  H      -61.933     441.661    1006.941
  H      -60.231     441.403    1006.639
  H      -61.175     442.379    1005.540

 6  7  8  9  10  11  12  13  14  15  16  26  30  31  32  33  35 0
 6-311+G(2d,p)
 ****
 37  38 0
 6-311+G(2d,p)
 ****
 1  2  3  4  5  17  18  19  20  21  22  23  24  25 0
 3-21G
 ****
 27  28  29  34  36  39  40  41  42  43  44  45  46 0
 3-21G
 ****


