%nproc=1
%NoSave
%Mem=1900MB
#P OB98/GEN NMR

erre ene a

0 1
  C      774.519    -668.186     966.781
  O      773.904    -667.018     967.336
  P      773.622    -665.802     966.323
  C      771.080    -666.289     966.049
  O      772.361    -666.203     965.426
  C      769.971    -665.935     965.070
  O      769.886    -666.918     964.015
  C      768.579    -665.880     965.674
  O      768.361    -664.656     966.359
  C      767.711    -665.971     964.433
  O      767.574    -664.668     963.824
  C      768.519    -666.910     963.531
  N      766.353    -670.577     960.770
  C      766.706    -669.284     960.413
  N      766.476    -668.928     959.124
  N      767.245    -668.429     961.241
  C      767.441    -668.918     962.479
  C      767.127    -670.176     962.951
  C      766.510    -671.114     962.036
  O      766.140    -672.255     962.310
  N      767.489    -670.322     964.266
  C      768.042    -669.168     964.579
  N      768.025    -668.278     963.532
  O      774.851    -665.902     965.291
  O      773.554    -664.464     966.978
  H      768.474    -664.300     963.743
  H      775.035    -665.028     964.916
  H      765.938    -671.192     960.090
  H      768.472    -668.923     965.550
  H      768.552    -666.563     962.495
  H      766.690    -666.313     964.662
  H      766.134    -669.559     958.411
  H      768.399    -666.739     966.332
  H      766.770    -668.008     958.831
  H      770.230    -664.968     964.606
  H      771.044    -665.595     966.893
  H      770.947    -667.296     966.454
  P      767.878    -664.737     967.888
  C      770.278    -664.322     968.790
  O      769.173    -665.194     968.720
  O      766.935    -666.022     967.905
  O      767.186    -663.510     968.385
  H      766.251    -665.937     968.600
  H      769.960    -663.293     968.957
  H      770.857    -664.379     967.850
  H      770.933    -664.628     969.611
  H      774.653    -668.918     967.550
  H      775.471    -667.925     966.367
  H      773.893    -668.587     966.012

 3  4  5  6  7  8  9  10  11  12  23  26  30  31  33  0
 6-311+G(2d,p)
 ****
 35  36  37  38 0
 6-311+G(2d,p)
 ****
 1  2  13  14  15  16  17  18  19  20  21  22  24  25  27  28  29 0
 3-21G
 ****
 32  34  39  40  41  42  43  44  45  46  47  48  49 0
 3-21G
 ****


