%nproc=1
%NoSave
%Mem=1900MB
#P OB98/GEN NMR

erre ene a

0 1
  C      429.208     -22.948     150.234
  O      428.555     -23.604     151.296
  P      428.271     -25.183     151.231
  C      425.864     -24.557     151.898
  O      426.687     -25.346     151.042
  C      424.593     -24.139     151.168
  O      424.880     -23.170     150.130
  C      423.896     -25.277     150.433
  O      423.339     -26.311     151.215
  C      422.949     -24.511     149.525
  O      421.773     -24.103     150.220
  C      423.814     -23.278     149.154
  N      424.330     -23.364     147.787
  C      423.506     -22.862     146.792
  O      422.398     -22.368     147.007
  N      423.976     -22.970     145.509
  C      425.147     -23.567     145.134
  O      425.490     -23.673     143.966
  C      425.971     -24.092     146.232
  C      425.534     -23.973     147.490
  O      428.849     -25.978     152.355
  O      428.829     -25.596     149.790
  H      421.154     -24.862     150.218
  H      428.400     -25.144     149.040
  H      423.388     -22.626     144.768
  H      426.913     -24.559     145.971
  H      426.123     -24.357     148.317
  H      423.219     -22.358     149.234
  H      422.627     -25.117     148.671
  H      424.633     -25.768     149.783
  H      423.925     -23.654     151.886
  H      426.418     -23.660     152.192
  H      425.636     -25.121     152.808
  P      423.780     -27.846     151.093
  C      421.662     -28.450     149.720
  O      423.073     -28.470     149.795
  O      423.752     -28.654     152.350
  O      425.300     -27.705     150.599
  H      425.820     -28.457     150.942
  H      421.356     -28.952     148.797
  H      421.296     -27.421     149.695
  H      421.225     -28.980     150.569
  H      429.304     -21.907     150.463
  H      428.636     -23.065     149.337
  H      430.180     -23.374     150.095

 3  4  5  6  7  8  9  10  11  12  13  23  28  29  30  31  32 0
 6-311+G(2d,p)
 ****
 33  34 0
 6-311+G(2d,p)
 ****
 1  2  14  15  16  17  18  19  20  21  22  24  25  26  27 0
 3-21G
 ****
 35  36  37  38  39  40  41  42  43  44  45 0
 3-21G
 ****


