%nproc=1
%NoSave
%Mem=1900MB
#P OB98/GEN NMR

erre ene a

0 1
  C     -349.954     351.490      96.511
  O     -350.020     350.095      96.822
  P     -351.128     349.647      97.900
  C     -352.291     347.830      96.438
  O     -351.497     348.112      97.582
  C     -351.647     346.725      95.599
  O     -350.516     347.228      94.856
  C     -351.105     345.558      96.413
  O     -352.135     344.661      96.800
  C     -350.164     344.902      95.402
  O     -350.918     344.045      94.525
  C     -349.618     346.115      94.631
  N     -344.986     347.476      93.080
  C     -346.100     347.138      92.344
  N     -345.975     347.200      90.999
  N     -347.241     346.776      92.875
  C     -347.235     346.788      94.229
  C     -346.194     347.103      95.069
  C     -344.924     347.471      94.471
  O     -343.893     347.743      95.075
  N     -346.562     347.010      96.383
  C     -347.836     346.675      96.342
  N     -348.286     346.515      95.055
  O     -352.428     350.445      97.424
  O     -350.762     349.949      99.313
  H     -350.299     343.735      93.831
  H     -353.021     350.599      98.185
  H     -344.128     347.738      92.623
  H     -348.476     346.534      97.203
  H     -349.593     345.930      93.551
  H     -349.404     344.282      95.874
  H     -345.153     347.534      90.526
  H     -350.523     345.915      97.277
  H     -346.791     346.993      90.440
  H     -352.398     346.362      94.879
  H     -352.394     348.730      95.827
  H     -353.298     347.540      96.758
  P     -351.732     343.491      97.829
  C     -353.272     343.991      99.857
  O     -353.053     343.218      98.698
  O     -350.740     344.225      98.844
  O     -351.103     342.297      97.186
  H     -350.099     343.583      99.221
  H     -353.048     345.051      99.675
  H     -352.647     343.626     100.675
  H     -354.321     343.907     100.148
  H     -349.184     351.658      95.788
  H     -349.735     352.044      97.400
  H     -350.894     351.812      96.113

 3  4  5  6  7  8  9  10  11  12  23  26  30  31  33  0
 6-311+G(2d,p)
 ****
 35  36  37  38 0
 6-311+G(2d,p)
 ****
 1  2  13  14  15  16  17  18  19  20  21  22  24  25  27  28  29 0
 3-21G
 ****
 32  34  39  40  41  42  43  44  45  46  47  48  49 0
 3-21G
 ****


