%nproc=1
%NoSave
%Mem=1900MB
#P OB98/GEN NMR

erre ene a

0 1
  C      514.568     129.716     261.363
  O      515.849     129.650     260.729
  P      517.095     130.291     261.512
  C      518.979     128.519     261.845
  O      518.435     129.555     261.032
  C      520.308     128.034     261.264
  O      520.107     127.188     260.126
  C      521.189     129.172     260.765
  O      521.828     129.822     261.849
  C      522.148     128.438     259.836
  O      523.324     127.979     260.528
  C      521.303     127.236     259.335
  N      520.996     127.326     257.914
  C      522.056     127.053     257.036
  O      523.175     126.788     257.487
  N      521.823     127.129     255.686
  C      520.641     127.468     255.247
  N      520.481     127.518     253.897
  C      519.509     127.783     256.137
  C      519.756     127.698     257.443
  O      516.896     129.764     263.006
  O      517.140     131.789     261.449
  H      523.895     127.587     259.840
  H      517.216     130.431     263.645
  H      518.550     128.062     255.727
  H      518.978     127.913     258.171
  H      521.840     126.295     259.506
  H      522.493     129.091     259.027
  H      520.589     129.883     260.192
  H      520.842     127.456     262.048
  H      521.284     127.293     253.315
  H      518.271     127.686     261.907
  H      519.612     127.777     253.457
  H      519.106     128.895     262.868
  P      521.471     131.356     262.101
  C      520.149     131.213     264.302
  O      521.404     131.504     263.708
  O      519.934     131.430     261.699
  O      522.295     132.383     261.385
  H      519.612     132.337     261.721
  H      520.289     131.148     265.392
  H      519.759     130.255     263.945
  H      519.440     132.011     264.090
  H      513.835     129.255     260.735
  H      514.304     130.740     261.527
  H      514.608     129.203     262.301

 3  4  5  6  7  8  9  10  11  12  13  21  23  27  28  29  30  32 0
 6-311+G(2d,p)
 ****
 34  35 0
 6-311+G(2d,p)
 ****
 1  2  14  15  16  17  18  19  20  22  24  25  26 0
 3-21G
 ****
 31  33  36  37  38  39  40  41  42  43  44  45  46 0
 3-21G
 ****


