%nproc=1
%NoSave
%Mem=1900MB
#P OB98/GEN NMR

erre ene a

0 1
  C      -26.307    1019.793      32.663
  O      -26.123    1018.782      31.690
  H      -27.118    1019.496      33.331
  H      -26.578    1020.738      32.180
  H      -25.390    1019.925      33.252
  P      -24.983    1019.044      30.594
  C      -26.006    1018.171      28.375
  O      -25.159    1017.898      29.481
  C      -25.866    1017.083      27.317
  O      -24.532    1017.085      26.756
  C      -26.121    1015.666      27.820
  O      -27.506    1015.376      27.844
  C      -25.370    1014.843      26.786
  O      -26.142    1014.666      25.582
  C      -24.132    1015.709      26.516
  N      -20.157    1012.624      26.971
  C      -21.089    1012.728      25.968
  N      -20.986    1011.830      24.954
  N      -22.055    1013.613      25.958
  C      -22.055    1014.413      27.050
  C      -21.172    1014.423      28.103
  C      -20.096    1013.457      28.089
  O      -19.194    1013.365      28.916
  N      -21.495    1015.395      29.012
  C      -22.589    1015.952      28.526
  N      -22.986    1015.372      27.341
  O      -23.633    1018.621      31.344
  O      -24.905    1020.440      30.066
  H      -26.877    1014.050      25.756
  H      -22.897    1019.163      31.004
  H      -19.430    1011.933      26.920
  H      -23.135    1016.764      28.987
  H      -23.798    1015.647      25.471
  H      -25.144    1013.841      27.152
  H      -20.499    1010.955      25.074
  H      -25.664    1015.516      28.803
  H      -21.681    1011.886      24.218
  H      -26.554    1017.324      26.496
  H      -25.731    1019.133      27.942
  H      -27.046    1018.219      28.725
  P      -28.182    1015.087      29.279
  C      -28.285    1012.518      28.883
  O      -29.008    1013.721      29.123
  O      -29.329    1016.200      29.378
  O      -27.237    1015.150      30.439
  H      -29.622    1016.298      30.303
  H      -28.970    1011.700      28.803
  H      -27.610    1012.340      29.694
  H      -27.732    1012.610      27.972

 6  7  8  9  10  11  12  13  14  15  26  29  33  34 0
 6-311+G(2d,p)
 ****
 36  38  39  40  41 0
 6-311+G(2d,p)
 ****
 1  2  3  4  5  16  17  18  19  20  21  22  23  24  25 0
 3-21G
 ****
 27  28  30  31  32  35  37  42  43  44  45  46  47 0
 3-21G
 ****
 48  49 0
 3-21G
 ****


