%nproc=1
%NoSave
%Mem=1900MB
#P OB98/GEN NMR

erre ene a

0 1
  C       55.426     -91.383    -255.470
  O       56.818     -91.549    -255.635
  H       55.143     -91.743    -254.479
  H       54.899     -91.972    -256.222
  H       55.142     -90.328    -255.557
  P       57.519     -90.739    -256.828
  C       57.348     -88.205    -256.291
  O       58.117     -89.394    -256.184
  C       58.106     -87.021    -255.685
  O       57.556     -85.786    -256.237
  C       58.011     -86.936    -254.152
  O       59.261     -86.460    -253.638
  C       56.971     -85.850    -253.940
  O       57.087     -85.227    -252.666
  C       57.285     -84.926    -255.116
  N       54.293     -81.533    -252.937
  C       55.437     -82.150    -252.470
  N       55.817     -81.868    -251.207
  N       56.152     -82.980    -253.190
  C       55.674     -83.157    -254.446
  C       54.550     -82.611    -255.020
  C       53.760     -81.708    -254.211
  O       52.726     -81.144    -254.562
  N       54.371     -83.089    -256.294
  C       55.370     -83.941    -256.476
  N       56.185     -84.015    -255.379
  O       56.265     -90.223    -257.684
  O       58.472     -91.527    -257.665
  H       57.910     -84.696    -252.661
  H       56.083     -90.844    -258.412
  H       53.771     -80.916    -252.343
  H       55.533     -84.536    -257.365
  H       58.176     -84.306    -254.934
  H       55.963     -86.274    -254.032
  H       55.336     -81.219    -250.606
  H       57.748     -87.881    -253.669
  H       56.674     -82.286    -250.867
  H       59.154     -87.075    -256.008
  H       56.404     -88.338    -255.754
  H       57.126     -88.014    -257.348
  P       60.306     -87.543    -253.070
  C       60.774     -88.935    -255.215
  O       61.269     -88.004    -254.264
  O       59.385     -88.828    -252.818
  O       60.996     -87.115    -251.818
  H       59.704     -89.319    -252.041
  H       61.532     -89.139    -255.942
  H       59.914     -88.525    -255.702
  H       60.503     -89.843    -254.718

 6  7  8  9  10  11  12  13  14  15  26  29  33  34 0
 6-311+G(2d,p)
 ****
 36  38  39  40  41 0
 6-311+G(2d,p)
 ****
 1  2  3  4  5  16  17  18  19  20  21  22  23  24  25 0
 3-21G
 ****
 27  28  30  31  32  35  37  42  43  44  45  46  47 0
 3-21G
 ****
 48  49 0
 3-21G
 ****


