%nproc=1
%NoSave
%Mem=1900MB
#P OB98/GEN NMR

erre ene a

0 1
  C      294.294      96.431     512.235
  O      293.031      95.803     512.343
  H      294.194      97.306     511.587
  H      295.023      95.748     511.790
  H      294.641      96.761     513.217
  P      292.915      94.464     513.211
  C      291.181      95.152     514.996
  O      292.555      94.928     514.705
  C      290.822      94.542     516.349
  O      291.115      93.131     516.356
  C      291.578      95.142     517.532
  O      290.972      96.357     517.946
  C      291.418      94.032     518.557
  O      290.087      94.073     519.111
  C      291.584      92.773     517.685
  N      295.463      90.621     520.148
  C      294.266      91.103     520.635
  N      294.090      91.030     521.973
  N      293.332      91.622     519.880
  C      293.676      91.696     518.575
  C      294.836      91.267     517.978
  C      295.837      90.633     518.811
  O      296.902      90.173     518.412
  N      294.867      91.596     516.645
  C      293.699      92.171     516.430
  N      292.941      92.266     517.572
  O      294.083      93.526     513.132
  O      291.560      93.781     512.706
  H      290.036      93.369     519.783
  H      291.733      93.150     511.981
  H      296.152      90.239     520.778
  H      293.352      92.534     515.468
  H      290.964      91.941     518.040
  H      292.117      94.118     519.387
  H      294.825      90.782     522.614
  H      292.643      95.266     517.307
  H      293.240      91.432     522.351
  H      289.735      94.642     516.483
  H      290.594      94.688     514.198
  H      290.965      96.226     515.012
  P      291.741      97.391     518.907
  C      291.071      99.442     517.478
  O      292.126      98.632     517.968
  O      292.877      96.811     519.671
  O      290.585      98.011     519.820
  H      290.384      97.457     520.615
  H      291.475     100.225     516.871
  H      290.537      99.869     518.301
  H      290.405      98.844     516.892

 6  7  8  9  10  11  12  13  14  15  26  29  33  34 0
 6-311+G(2d,p)
 ****
 36  38  39  40  41 0
 6-311+G(2d,p)
 ****
 1  2  3  4  5  16  17  18  19  20  21  22  23  24  25 0
 3-21G
 ****
 27  28  30  31  32  35  37  42  43  44  45  46  47 0
 3-21G
 ****
 48  49 0
 3-21G
 ****


