%nproc=1
%NoSave
%Mem=1900MB
#P OB98/GEN NMR

erre ene a

0 1
  C      127.255      70.170     160.195
  O      128.590      70.635     160.170
  H      127.019      69.739     159.218
  H      126.565      70.995     160.390
  H      127.135      69.394     160.955
  P      129.172      71.353     161.479
  C      128.528      73.717     160.656
  O      128.339      72.715     161.648
  C      127.743      74.976     161.017
  O      126.424      74.630     161.481
  C      128.382      75.817     162.123
  O      129.410      76.638     161.597
  C      127.178      76.619     162.589
  O      126.905      77.676     161.648
  C      126.054      75.566     162.531
  N      122.589      73.582     165.668
  C      122.421      74.392     164.561
  N      121.154      74.749     164.267
  N      123.409      74.823     163.818
  C      124.626      74.445     164.274
  C      124.921      73.660     165.364
  C      123.816      73.135     166.140
  O      123.920      72.392     167.114
  N      126.273      73.568     165.570
  C      126.799      74.254     164.570
  N      125.838      74.816     163.757
  O      130.659      71.543     161.520
  O      128.647      70.450     162.692
  H      125.970      77.929     161.763
  H      129.299      69.764     162.928
  H      121.792      73.287     166.206
  H      127.860      74.371     164.384
  H      125.089      76.007     162.254
  H      127.330      77.087     163.564
  H      120.372      74.575     164.880
  H      128.733      75.193     162.951
  H      121.016      75.389     163.493
  H      127.618      75.567     160.099
  H      128.177      73.307     159.703
  H      129.591      73.963     160.560
  P      130.779      76.888     162.403
  C      129.905      79.279     162.866
  O      130.466      78.095     163.411
  O      131.981      77.087     161.547
  O      130.885      75.643     163.400
  H      131.300      74.847     162.983
  H      129.751      79.993     163.648
  H      128.968      79.049     162.403
  H      130.573      79.687     162.137

 6  7  8  9  10  11  12  13  14  15  26  29  33  34 0
 6-311+G(2d,p)
 ****
 36  38  39  40  41 0
 6-311+G(2d,p)
 ****
 1  2  3  4  5  16  17  18  19  20  21  22  23  24  25 0
 3-21G
 ****
 27  28  30  31  32  35  37  42  43  44  45  46  47 0
 3-21G
 ****
 48  49 0
 3-21G
 ****


