%nproc=1
%NoSave
%Mem=1900MB
#P OB98/GEN NMR

erre ene a

0 1
  C       94.887     -19.024     139.071
  O       94.198     -20.263     138.876
  P       92.750     -20.418     139.558
  C       91.936     -21.019     141.972
  O       93.026     -20.712     141.115
  C       92.243     -20.598     143.416
  O       93.390     -21.352     143.914
  C       92.554     -19.104     143.590
  O       91.981     -18.705     144.845
  C       94.068     -19.074     143.669
  O       94.547     -17.899     144.313
  C       94.337     -20.382     144.422
  N       95.716     -20.851     144.273
  C       96.601     -20.526     145.298
  O       96.292     -19.815     146.254
  N       97.875     -21.015     145.157
  C       98.356     -21.707     144.082
  O       99.508     -22.122     144.011
  C       97.399     -21.919     142.982
  C       96.147     -21.485     143.129
  O       92.267     -21.822     138.966
  O       91.845     -19.264     139.270
  H       92.987     -22.471     138.873
  H       94.176     -17.861     145.217
  H       98.530     -20.819     145.907
  H       97.762     -22.416     142.088
  H       95.427     -21.602     142.329
  H       94.130     -20.255     145.493
  H       94.495     -19.116     142.658
  H       92.141     -18.487     142.782
  H       91.382     -20.876     144.042
  H       91.741     -22.096     141.954
  H       91.032     -20.525     141.597
  P       90.767     -17.649     144.823
  C       90.567     -15.058     145.190
  O       91.398     -16.191     145.039
  O       90.094     -17.961     146.253
  O       89.803     -17.807     143.690
  H       90.746     -18.014     146.973
  H       91.175     -14.224     145.556
  H       89.772     -15.250     145.912
  H       90.135     -14.785     144.224
  H       95.830     -19.057     138.567
  H       95.047     -18.866     140.117
  H       94.299     -18.223     138.675

 3  4  5  6  7  8  9  10  11  12  13  24  28  29  30  31  32 0
 6-311+G(2d,p)
 ****
 33  34 0
 6-311+G(2d,p)
 ****
 1  2  14  15  16  17  18  19  20  21  22  23  25  26  27 0
 3-21G
 ****
 35  36  37  38  39  40  41  42  43  44  45 0
 3-21G
 ****


