%nproc=1
%NoSave
%Mem=1900MB
#P OB98/GEN NMR

erre ene a

0 1
  C     -899.231     294.383    -269.281
  O     -898.231     295.133    -269.948
  P     -897.451     294.458    -271.176
  C     -896.951     296.534    -272.641
  O     -897.711     295.326    -272.501
  C     -897.691     297.705    -271.965
  O     -897.781     297.462    -270.549
  C     -896.981     299.067    -272.111
  O     -897.281     299.860    -273.234
  C     -897.531     299.800    -270.891
  O     -898.831     300.370    -271.203
  C     -897.701     298.709    -269.842
  N     -895.721     300.866    -265.637
  C     -896.841     301.135    -266.342
  N     -897.301     300.496    -267.449
  C     -896.471     299.516    -267.806
  C     -895.291     299.127    -267.184
  C     -894.931     299.863    -266.046
  N     -893.781     299.608    -265.326
  N     -894.711     298.069    -267.848
  C     -895.521     297.832    -268.873
  N     -896.591     298.664    -268.880
  O     -897.631     292.979    -271.325
  O     -895.921     294.797    -270.837
  H     -899.111     300.844    -270.404
  H     -895.361     294.026    -271.104
  H     -897.461     301.945    -265.975
  H     -895.341     297.070    -269.607
  H     -898.631     298.835    -269.267
  H     -896.891     300.640    -270.595
  H     -895.901     298.945    -272.011
  H     -898.711     297.765    -272.371
  H     -896.811     296.746    -273.700
  H     -893.561     300.194    -264.541
  H     -893.121     298.887    -265.653
  H     -895.961     296.338    -272.195
  P     -896.511     299.675    -274.639
  C     -898.411     300.634    -276.152
  O     -897.661     299.512    -275.735
  O     -895.501     298.568    -274.645
  O     -895.921     301.116    -274.923
  H     -896.591     301.795    -275.133
  H     -898.961     300.372    -277.062
  H     -897.751     301.480    -276.393
  H     -899.101     300.939    -275.370
  H     -899.652     294.971    -268.493
  H     -898.797     293.495    -268.871
  H     -900.000     294.116    -269.976

 3  4  5  6  7  8  9  10  11  12  22  25  29  30  31  32 0
 6-311+G(2d,p)
 ****
 33  36  37 0
 6-311+G(2d,p)
 ****
 1  2  13  14  15  16  17  18  19  20  21  23  24  26 0
 3-21G
 ****
 27  28  34  35  38  39  40  41  42  43  44  45  46  47  48 0
 3-21G
 ****


