%nproc=1
%NoSave
%Mem=1900MB
#P OB98/GEN NMR

erre ene a

0 1
  C      -97.420     440.667    -198.264
  O      -97.227     441.661    -199.247
  H      -98.489     440.461    -198.179
  H      -97.055     441.023    -197.297
  H      -96.902     439.744    -198.541
  P      -95.715     442.014    -199.656
  C      -96.153     444.354    -198.621
  O      -95.615     443.617    -199.706
  C      -95.635     445.795    -198.648
  O      -94.220     445.789    -198.329
  C      -95.808     446.485    -200.002
  O      -96.159     447.854    -199.776
  C      -94.426     446.414    -200.622
  O      -94.200     447.446    -201.582
  C      -93.525     446.482    -199.380
  N      -92.212     445.900    -199.641
  C      -91.263     446.738    -200.234
  O      -91.551     447.901    -200.523
  N      -90.028     446.229    -200.543
  C      -89.791     444.963    -200.357
  N      -88.556     444.508    -200.711
  C      -90.786     444.028    -199.797
  C      -91.959     444.560    -199.456
  O      -95.641     441.592    -201.196
  O      -94.661     441.355    -198.831
  H      -94.189     448.308    -201.115
  H      -94.745     441.283    -201.434
  H      -90.549     442.980    -199.684
  H      -92.756     443.951    -199.046
  H      -93.391     447.525    -199.059
  H      -94.299     445.448    -201.130
  H      -96.571     446.017    -200.633
  H      -96.139     446.357    -197.852
  H      -87.908     445.178    -201.108
  H      -95.844     443.883    -197.683
  H      -88.280     443.542    -200.652
  H      -97.247     444.341    -198.678
  P      -97.716     448.225    -199.868
  C      -97.507     449.867    -201.872
  O      -97.843     449.693    -200.503
  O      -98.139     448.434    -198.339
  O      -98.543     447.173    -200.532
  H      -98.699     447.693    -198.046
  H      -97.642     450.893    -202.145
  H      -98.140     449.251    -202.476
  H      -96.486     449.588    -202.027

 6  7  8  9  10  11  12  13  14  15  16  26  30  31  32  33  35 0
 6-311+G(2d,p)
 ****
 37  38 0
 6-311+G(2d,p)
 ****
 1  2  3  4  5  17  18  19  20  21  22  23  24  25 0
 3-21G
 ****
 27  28  29  34  36  39  40  41  42  43  44  45  46 0
 3-21G
 ****


