%nproc=1
%NoSave
%Mem=1900MB
#P OB98/GEN NMR

erre ene a

0 1
  C      418.603     436.528    -171.280
  O      418.027     435.631    -172.208
  H      417.904     437.341    -171.067
  H      418.811     435.993    -170.351
  H      419.537     436.937    -171.671
  P      417.629     436.242    -173.638
  C      415.049     436.110    -173.494
  O      416.231     435.564    -174.060
  C      413.853     435.210    -173.811
  O      413.339     435.596    -175.116
  C      414.183     433.712    -173.852
  O      413.255     432.966    -173.048
  C      413.987     433.323    -175.302
  O      413.478     432.000    -175.461
  C      413.003     434.382    -175.800
  N      410.827     433.132    -180.246
  C      410.348     433.128    -178.991
  N      410.943     433.564    -177.862
  C      412.158     434.074    -178.124
  C      412.778     434.167    -179.364
  C      412.070     433.645    -180.463
  N      412.583     433.594    -181.740
  N      414.032     434.739    -179.246
  C      414.186     434.955    -177.960
  N      413.089     434.552    -177.235
  O      418.694     435.567    -174.636
  O      417.680     437.730    -173.711
  H      412.611     431.969    -175.012
  H      419.228     436.271    -175.048
  H      409.354     432.717    -178.868
  H      415.077     435.350    -177.480
  H      411.966     434.125    -175.544
  H      414.951     433.396    -175.827
  H      415.207     433.496    -173.517
  H      413.058     435.415    -173.084
  H      414.871     437.109    -173.913
  H      412.057     433.098    -182.434
  H      413.546     433.872    -181.880
  H      415.180     436.200    -172.412
  P      413.841     432.322    -171.695
  C      414.369     430.047    -172.826
  O      413.670     430.724    -171.789
  O      412.761     432.762    -170.584
  O      415.208     432.808    -171.341
  H      413.210     433.249    -169.865
  H      414.164     428.998    -172.768
  H      415.420     430.212    -172.714
  H      414.048     430.421    -173.776

 6  7  8  9  10  11  12  13  14  15  25  28  32  33  34  35 0
 6-311+G(2d,p)
 ****
 36  39  40 0
 6-311+G(2d,p)
 ****
 1  2  3  4  5  16  17  18  19  20  21  22  23  24 0
 3-21G
 ****
 26  27  29  30  31  37  38  41  42  43  44  45  46  47  48 0
 3-21G
 ****


