%nproc=1
%NoSave
%Mem=1900MB
#P OB98/GEN NMR

erre ene a

0 1
  C      -58.455     309.874     -67.768
  O      -58.728     308.856     -66.823
  H      -59.293     310.576     -67.779
  H      -58.340     309.439     -68.765
  H      -57.544     310.414     -67.489
  P      -57.590     307.743     -66.627
  C      -58.584     306.227     -68.504
  O      -57.473     306.979     -68.034
  C      -58.347     305.780     -69.949
  O      -59.305     304.727     -70.275
  C      -58.544     306.901     -70.984
  O      -57.680     306.645     -72.106
  C      -59.989     306.683     -71.404
  O      -60.259     307.357     -72.610
  C      -60.014     305.160     -71.456
  N      -64.165     304.454     -74.330
  C      -62.944     304.952     -74.618
  N      -61.885     305.098     -73.794
  C      -62.173     304.640     -72.565
  C      -63.374     304.107     -72.123
  C      -64.410     304.024     -73.070
  N      -65.663     303.538     -72.777
  N      -63.290     303.772     -70.784
  C      -62.062     304.093     -70.426
  N      -61.354     304.618     -71.471
  O      -58.293     306.667     -65.668
  O      -56.298     308.230     -66.067
  H      -59.679     307.040     -73.331
  H      -58.086     306.867     -64.737
  H      -62.799     305.278     -75.644
  H      -61.642     303.976     -69.436
  H      -59.485     304.761     -72.332
  H      -60.682     307.067     -70.650
  H      -58.346     307.900     -70.585
  H      -57.349     305.334     -70.031
  H      -59.479     306.857     -68.450
  H      -58.724     305.348     -67.866
  H      -66.357     303.540     -73.506
  H      -65.868     303.246     -71.833
  P      -56.194     307.254     -72.101
  C      -56.415     309.600     -73.221
  O      -56.243     308.853     -72.026
  O      -55.725     307.000     -73.611
  O      -55.242     306.605     -71.147
  H      -54.818     306.630     -73.618
  H      -56.425     310.645     -72.990
  H      -57.342     309.328     -73.682
  H      -55.608     309.391     -73.892

 6  7  8  9  10  11  12  13  14  15  25  28  32  33  34  35 0
 6-311+G(2d,p)
 ****
 36  37  40 0
 6-311+G(2d,p)
 ****
 1  2  3  4  5  16  17  18  19  20  21  22  23  24 0
 3-21G
 ****
 26  27  29  30  31  38  39 41  42  43  44  45  46  47  48 0
 3-21G
 ****


