%nproc=1
%NoSave
%Mem=1900MB
#P OB98/GEN NMR

erre ene a

0 1
  C      713.521    -435.790     -13.593
  O      712.631    -435.420     -14.639
  P      712.475    -433.858     -14.955
  C      711.538    -431.859     -13.595
  O      711.543    -433.264     -13.789
  C      710.594    -431.478     -12.454
  O      711.107    -432.020     -11.214
  C      710.463    -429.973     -12.215
  O      709.540    -429.388     -13.128
  C      709.927    -429.965     -10.795
  O      708.503    -430.182     -10.804
  C      710.660    -431.152     -10.143
  N      712.221    -428.546      -6.092
  C      710.950    -428.730      -6.594
  N      709.949    -428.148      -5.896
  N      710.682    -429.403      -7.677
  C      711.775    -429.954      -8.245
  C      713.100    -429.850      -7.845
  C      713.380    -429.055      -6.666
  O      714.507    -428.805      -6.216
  N      713.927    -430.563      -8.669
  C      713.112    -431.131      -9.543
  N      711.799    -430.767      -9.347
  O      711.515    -433.845     -16.235
  O      713.752    -433.127     -15.213
  H      708.347    -431.053     -11.235
  H      711.656    -433.028     -16.744
  H      712.378    -428.023      -5.246
  H      713.432    -431.812     -10.336
  H      709.969    -431.734      -9.518
  H      710.094    -428.999     -10.292
  H      710.070    -427.725      -4.991
  H      711.441    -429.476     -12.257
  H      708.991    -428.298      -6.224
  H      709.614    -431.929     -12.654
  H      711.192    -431.367     -14.517
  H      712.561    -431.522     -13.389
  P      709.508    -427.781     -13.142
  C      708.914    -425.995     -11.358
  O      708.850    -427.350     -11.756
  O      708.377    -427.446     -14.235
  O      710.812    -427.135     -13.485
  H      708.527    -426.572     -14.631
  H      708.826    -425.319     -12.211
  H      709.870    -425.814     -10.847
  H      708.091    -425.786     -10.659
  H      713.528    -436.855     -13.491
  H      713.197    -435.346     -12.675
  H      714.508    -435.448     -13.826

 3  4  5  6  7  8  9  10  11  12  23  26  30  31  33  0
 6-311+G(2d,p)
 ****
 35  36  37  38 0
 6-311+G(2d,p)
 ****
 1  2  13  14  15  16  17  18  19  20  21  22  24  25  27  28  29 0
 3-21G
 ****
 32  34  39  40  41  42  43  44  45  46  47  48  49 0
 3-21G
 ****


