%nproc=1
%NoSave
%Mem=1900MB
#P OB98/GEN NMR

erre ene a

0 1
  C      683.240     -12.291     481.842
  O      683.370     -10.978     482.353
  P      684.676     -10.101     482.018
  C      685.811      -9.887     484.317
  O      685.838     -10.527     483.046
  C      687.023      -8.967     484.474
  O      688.206      -9.588     483.936
  C      686.900      -7.635     483.734
  O      685.989      -6.753     484.369
  C      688.364      -7.178     483.731
  O      688.708      -6.579     484.978
  C      689.105      -8.524     483.543
  N      689.582      -8.695     482.186
  C      690.596      -7.815     481.773
  O      690.967      -6.902     482.507
  N      691.150      -7.994     480.527
  C      690.656      -8.889     479.715
  N      691.281      -9.049     478.514
  C      689.490      -9.718     480.056
  C      689.015      -9.586     481.303
  O      684.442      -8.633     481.905
  O      685.196     -10.708     480.633
  H      685.352      -9.980     480.006
  H      688.262      -5.719     485.017
  H      689.075     -10.400     479.323
  H      688.182     -10.185     481.652
  H      689.948      -8.569     484.234
  H      688.544      -6.435     482.944
  H      686.574      -7.818     482.707
  H      687.177      -8.787     485.550
  H      692.093      -8.480     478.332
  H      685.817     -10.650     485.100
  H      691.197      -9.901     477.975
  H      684.879      -9.308     484.412
  P      685.355      -5.591     483.467
  C      687.165      -3.873     484.173
  O      686.532      -4.572     483.102
  O      684.444      -4.781     484.505
  O      684.549      -6.092     482.297
  H      683.634      -4.472     484.055
  H      688.137      -3.509     483.826
  H      687.328      -4.528     485.028
  H      686.540      -3.023     484.464
  H      682.312     -12.711     482.170
  H      684.050     -12.894     482.197
  H      683.260     -12.261     480.773

 3  4  5  6  7  8  9  10  11  12  13  24  27  28  29  30  32 0
 6-311+G(2d,p)
 ****
 34  35 0
 6-311+G(2d,p)
 ****
 1  2  14  15  16  17  18  19  20  21  22  23  25  26 0
 3-21G
 ****
 31  33  36  37  38  39  40  41  42  43  44  45  46 0
 3-21G
 ****


