%nproc=1
%NoSave
%Mem=1900MB
#P OB98/GEN NMR

erre ene a

0 1
  C     -635.887     483.331     375.031
  O     -634.568     483.202     374.494
  P     -634.358     482.350     373.151
  C     -631.930     483.088     372.709
  O     -632.800     482.005     373.016
  C     -630.463     482.635     372.757
  O     -630.114     482.103     374.044
  C     -630.144     481.541     371.758
  O     -630.070     482.057     370.443
  C     -628.828     481.000     372.314
  O     -627.727     481.815     371.901
  C     -629.046     481.139     373.841
  N     -629.339     479.874     374.499
  C     -628.327     478.910     374.451
  O     -627.280     479.139     373.838
  N     -628.530     477.706     375.074
  C     -629.652     477.487     375.693
  N     -629.804     476.276     376.304
  C     -630.747     478.476     375.767
  C     -630.535     479.628     375.149
  O     -634.990     482.919     371.920
  O     -635.000     480.928     373.522
  H     -627.811     481.900     370.926
  H     -635.357     480.524     372.709
  H     -631.661     478.241     376.300
  H     -631.279     480.406     375.140
  H     -628.151     481.562     374.311
  H     -628.628     479.970     371.979
  H     -630.918     480.756     371.809
  H     -629.829     483.515     372.561
  H     -629.043     475.608     376.233
  H     -632.089     483.897     373.430
  H     -630.615     476.034     376.855
  H     -632.185     483.485     371.721
  P     -630.976     481.356     369.318
  C     -630.578     483.172     367.515
  O     -630.428     481.817     367.885
  O     -632.376     482.134     369.443
  O     -631.163     479.879     369.484
  H     -633.110     481.523     369.252
  H     -629.890     483.385     366.683
  H     -630.344     483.837     368.341
  H     -631.602     483.346     367.178
  H     -635.853     483.925     375.920
  H     -636.274     482.361     375.264
  H     -636.521     483.804     374.310

 3  4  5  6  7  8  9  10  11  12  13  23  27  28  29  30  32 0
 6-311+G(2d,p)
 ****
 34  35 0
 6-311+G(2d,p)
 ****
 1  2  14  15  16  17  18  19  20  21  22  24  25  26 0
 3-21G
 ****
 31  33  36  37  38  39  40  41  42  43  44  45  46 0
 3-21G
 ****


