%nproc=1
%NoSave
%Mem=1900MB
#P OB98/GEN NMR

erre ene a

0 1
  C      -96.435      97.640    -200.207
  O      -95.132      97.054    -200.336
  P      -94.724      96.552    -201.809
  C      -95.060      94.410    -203.242
  O      -95.340      95.082    -202.021
  C      -96.340      93.957    -203.949
  O      -96.973      92.914    -203.170
  C      -97.382      95.058    -204.157
  O      -98.026      94.851    -205.424
  C      -98.410      94.777    -203.076
  O      -99.688      95.327    -203.388
  C      -98.362      93.252    -203.039
  N     -102.602      92.134    -200.513
  C     -102.437      92.588    -201.807
  N     -103.568      92.795    -202.518
  N     -101.275      92.819    -202.355
  C     -100.231      92.534    -201.535
  C     -100.261      92.072    -200.241
  C     -101.559      91.862    -199.634
  O     -101.768      91.511    -198.474
  N      -98.992      91.906    -199.735
  C      -98.198      92.279    -200.721
  N      -98.904      92.677    -201.831
  O      -93.148      96.300    -201.683
  O      -95.035      97.534    -202.887
  H      -99.569      96.293    -203.479
  H      -92.674      96.823    -202.356
  H     -103.520      91.990    -200.132
  H      -97.120      92.303    -200.678
  H      -98.896      92.815    -203.893
  H      -98.071      95.215    -202.129
  H     -104.492      92.578    -202.181
  H      -96.987      96.078    -204.108
  H     -103.468      93.087    -203.484
  H      -96.057      93.513    -204.914
  H      -94.432      93.536    -203.038
  H      -94.489      95.085    -203.886
  P      -97.990      96.076    -206.458
  C      -99.377      98.269    -206.629
  O      -99.307      96.938    -206.157
  O      -98.299      95.387    -207.866
  O      -96.701      96.831    -206.463
  H      -97.904      95.904    -208.592
  H      -98.578      98.504    -207.334
  H      -99.311      98.953    -205.780
  H     -100.339      98.420    -207.127
  H      -96.595      97.934    -199.191
  H      -97.178      96.924    -200.492
  H      -96.504      98.498    -200.842

 3  4  5  6  7  8  9  10  11  12  23  26  30  31  33  0
 6-311+G(2d,p)
 ****
 35  36  37  38 0
 6-311+G(2d,p)
 ****
 1  2  13  14  15  16  17  18  19  20  21  22  24  25  27  28  29 0
 3-21G
 ****
 32  34  39  40  41  42  43  44  45  46  47  48  49 0
 3-21G
 ****


