%nproc=1
%NoSave
%Mem=1900MB
#P OB98/GEN NMR

erre ene a

0 1
  C     -462.880    -187.209    -324.544
  O     -463.286    -187.875    -325.717
  H     -463.111    -186.146    -324.651
  H     -461.799    -187.312    -324.399
  H     -463.415    -187.599    -323.672
  P     -463.023    -189.456    -325.852
  C     -460.678    -189.000    -326.800
  O     -461.422    -189.633    -325.765
  C     -459.295    -189.637    -326.952
  O     -459.434    -191.080    -327.054
  C     -458.524    -189.153    -328.195
  O     -457.181    -188.825    -327.831
  C     -458.522    -190.373    -329.110
  O     -457.442    -190.368    -330.039
  C     -458.511    -191.508    -328.073
  N     -458.878    -192.788    -328.666
  C     -457.942    -193.820    -328.536
  O     -456.878    -193.624    -327.947
  N     -458.204    -195.031    -329.129
  C     -459.292    -195.181    -329.823
  N     -459.477    -196.396    -330.410
  C     -460.294    -194.112    -330.012
  C     -460.031    -192.948    -329.409
  O     -463.666    -190.097    -327.040
  O     -463.520    -190.078    -324.463
  H     -457.635    -189.696    -330.729
  H     -463.725    -191.030    -324.595
  H     -461.174    -194.288    -330.609
  H     -460.707    -192.105    -329.487
  H     -457.514    -191.607    -327.616
  H     -459.460    -190.397    -329.678
  H     -458.986    -188.296    -328.675
  H     -458.723    -189.451    -326.034
  H     -458.761    -197.104    -330.264
  H     -460.585    -187.934    -326.563
  H     -460.272    -196.619    -330.994
  H     -461.230    -189.114    -327.741
  P     -456.851    -187.255    -327.685
  C     -455.584    -186.931    -329.928
  O     -456.738    -186.635    -329.164
  O     -455.338    -187.247    -327.144
  O     -457.771    -186.538    -326.753
  H     -455.326    -186.950    -326.213
  H     -455.655    -186.451    -330.881
  H     -455.510    -187.989    -330.067
  H     -454.715    -186.577    -329.414

 6  7  8  9  10  11  12  13  14  15  16  26  30  31  32  33  35 0
 6-311+G(2d,p)
 ****
 37  38 0
 6-311+G(2d,p)
 ****
 1  2  3  4  5  17  18  19  20  21  22  23  24  25 0
 3-21G
 ****
 27  28  29  34  36  39  40  41  42  43  44  45  46 0
 3-21G
 ****


