%nproc=1
%NoSave
%Mem=1900MB
#P OB98/GEN NMR

erre ene a

0 1
  C      117.733     105.300    -317.650
  O      116.660     106.065    -318.172
  H      118.684     105.786    -317.888
  H      117.624     105.243    -316.562
  H      117.716     104.287    -318.060
  P      116.527     106.127    -319.769
  C      116.731     108.700    -320.109
  O      115.879     107.561    -320.097
  C      115.952     109.952    -319.703
  O      114.946     110.228    -320.718
  C      115.234     109.817    -318.359
  O      115.317     111.067    -317.663
  C      113.792     109.541    -318.749
  O      112.873     109.932    -317.740
  C      113.676     110.344    -320.045
  N      110.433     111.570    -323.798
  C      111.449     112.248    -323.224
  N      112.270     111.846    -322.235
  C      111.985     110.579    -321.865
  C      110.979     109.763    -322.355
  C      110.167     110.308    -323.366
  N      109.106     109.640    -323.928
  N      110.985     108.547    -321.701
  C      111.972     108.630    -320.833
  N      112.609     109.839    -320.895
  O      115.332     105.097    -320.053
  O      117.759     105.783    -320.537
  H      112.692     110.892    -317.838
  H      115.677     104.184    -320.028
  H      111.622     113.253    -323.613
  H      112.266     107.849    -320.138
  H      113.471     111.405    -319.867
  H      113.660     108.472    -318.938
  H      115.649     109.025    -317.733
  H      116.645     110.807    -319.705
  H      117.136     108.826    -321.117
  H      108.537     110.128    -324.604
  H      108.859     108.730    -323.578
  H      117.558     108.538    -319.411
  P      116.692     111.365    -316.878
  C      115.396     111.326    -314.634
  O      116.336     112.013    -315.454
  O      117.331     112.582    -317.702
  O      117.619     110.194    -316.835
  H      118.262     112.392    -317.917
  H      115.256     111.867    -313.722
  H      115.764     110.346    -314.414
  H      114.462     111.249    -315.150

 6  7  8  9  10  11  12  13  14  15  25  28  32  33  34  35 0
 6-311+G(2d,p)
 ****
 36  39  40 0
 6-311+G(2d,p)
 ****
 1  2  3  4  5  16  17  18  19  20  21  22  23  24 0
 3-21G
 ****
 26  27  29  30  31  37  38  41  42  43  44  45  46  47 0
 3-21G
 ****
 48 0
 3-21G
 ****


