%nproc=1
%NoSave
%Mem=1900MB
#P OB98/GEN NMR

erre ene a

0 1
  C      -77.049    -409.641    -262.462
  O      -78.284    -410.241    -262.118
  H      -76.980    -408.671    -261.964
  H      -77.007    -409.484    -263.543
  H      -76.210    -410.264    -262.140
  P      -78.469    -411.792    -262.481
  C      -79.458    -413.111    -264.485
  O      -78.983    -411.861    -264.006
  C      -80.147    -412.933    -265.838
  O      -81.238    -411.984    -265.681
  C      -79.223    -412.403    -266.943
  O      -79.556    -413.054    -268.173
  C      -79.579    -410.929    -267.029
  O      -79.291    -410.369    -268.307
  C      -81.065    -410.959    -266.683
  N      -84.487    -407.313    -267.326
  C      -84.361    -408.544    -267.947
  N      -85.282    -408.842    -268.889
  N      -83.415    -409.398    -267.671
  C      -82.584    -408.980    -266.684
  C      -82.603    -407.788    -265.997
  C      -83.641    -406.837    -266.330
  O      -83.788    -405.726    -265.832
  N      -81.567    -407.725    -265.090
  C      -80.933    -408.873    -265.233
  N      -81.517    -409.670    -266.180
  O      -79.760    -412.213    -261.631
  O      -77.300    -412.666    -262.171
  H      -79.615    -409.444    -268.303
  H      -79.509    -412.878    -260.962
  H      -85.231    -406.684    -267.583
  H      -80.050    -409.170    -264.684
  H      -81.689    -411.207    -267.545
  H      -79.011    -410.369    -266.277
  H      -86.066    -408.249    -269.118
  H      -78.166    -412.562    -266.724
  H      -85.232    -409.752    -269.336
  H      -80.600    -413.889    -266.127
  H      -80.170    -413.521    -263.759
  H      -78.615    -413.804    -264.586
  P      -78.348    -413.359    -269.186
  C      -77.871    -412.569    -271.607
  O      -78.323    -412.208    -270.310
  O      -78.859    -414.651    -269.986
  O      -77.042    -413.620    -268.508
  H      -78.356    -415.439    -269.701
  H      -77.907    -411.713    -272.248
  H      -78.501    -413.338    -272.003
  H      -76.865    -412.928    -271.547

 6  7  8  9  10  11  12  13  14  15  26  29  33  34 0
 6-311+G(2d,p)
 ****
 36  38  39  40  41 0
 6-311+G(2d,p)
 ****
 1  2  3  4  5  16  17  18  19  20  21  22  23  24  25 0
 3-21G
 ****
 27  28  30  31  32  35  37  42  43  44  45  46  47 0
 3-21G
 ****
 48  49 0
 3-21G
 ****


