%nproc=1
%NoSave
%Mem=1900MB
#P OB98/GEN NMR

erre ene a

0 1
  C     -335.720       3.069     423.183
  O     -334.605       3.850     422.805
  P     -333.615       3.310     421.667
  C     -331.524       3.110     423.207
  O     -332.124       3.747     422.103
  C     -330.114       3.670     423.480
  O     -329.276       3.332     422.347
  C     -330.050       5.195     423.606
  O     -328.827       5.552     424.259
  C     -330.005       5.631     422.152
  O     -329.485       6.945     421.996
  C     -329.153       4.499     421.496
  N     -329.618       4.189     420.139
  C     -329.215       5.060     419.121
  O     -328.438       5.995     419.307
  N     -329.803       4.854     417.895
  C     -330.769       3.933     417.619
  O     -331.492       3.970     416.631
  C     -330.977       2.902     418.661
  C     -330.433       3.089     419.861
  O     -333.940       4.280     420.434
  O     -333.769       1.880     421.313
  H     -329.091       6.982     421.082
  H     -334.568       3.851     419.829
  H     -329.610       5.567     417.195
  H     -331.626       2.069     418.427
  H     -330.609       2.376     420.663
  H     -328.096       4.775     421.431
  H     -331.008       5.621     421.742
  H     -330.898       5.633     424.136
  H     -329.695       3.191     424.366
  H     -331.474       2.024     423.029
  H     -332.141       3.239     424.109
  P     -328.766       5.522     425.857
  C     -328.011       7.954     425.619
  O     -327.832       6.738     426.300
  O     -328.463       4.191     426.471
  O     -330.237       6.033     426.267
  H     -330.429       5.795     427.184
  H     -327.749       8.786     426.279
  H     -329.053       8.089     425.277
  H     -327.340       7.989     424.741
  H     -336.268       3.577     423.949
  H     -335.384       2.123     423.553
  H     -336.353       2.916     422.334

 3  4  5  6  7  8  9  10  11  12  13  23  28  29  30  31  32 0
 6-311+G(2d,p)
 ****
 33  34 0
 6-311+G(2d,p)
 ****
 1  2  14  15  16  17  18  19  20  21  22  24  25  26  27 0
 3-21G
 ****
 35  36  37  38  39  40  41  42  43  44  45 0
 3-21G
 ****


