%nproc=1
%NoSave
%Mem=1900MB
#P OB98/GEN NMR

erre ene a

0 1
  C      -34.509    -361.096     378.643
  O      -35.176    -360.354     377.644
  H      -34.767    -360.684     379.622
  H      -33.429    -361.009     378.501
  H      -34.804    -362.148     378.612
  P      -35.268    -361.005     376.181
  C      -37.166    -362.617     376.916
  O      -35.859    -362.487     376.376
  C      -38.213    -362.185     375.890
  O      -38.121    -363.066     374.730
  C      -39.662    -362.243     376.406
  O      -40.397    -361.149     375.846
  C      -40.185    -363.530     375.793
  O      -41.603    -363.539     375.683
  C      -39.459    -363.520     374.452
  N      -42.436    -366.783     372.068
  C      -42.643    -365.459     372.405
  N      -43.853    -364.935     372.119
  N      -41.738    -364.711     372.980
  C      -40.563    -365.356     373.195
  C      -40.235    -366.658     372.912
  C      -41.251    -367.483     372.291
  O      -41.138    -368.665     371.988
  N      -38.963    -366.948     373.341
  C      -38.536    -365.827     373.899
  N      -39.472    -364.834     373.833
  O      -33.729    -361.257     375.817
  O      -35.956    -360.173     375.153
  H      -41.980    -363.354     376.567
  H      -33.386    -360.509     375.294
  H      -43.172    -367.318     371.642
  H      -37.574    -365.693     374.372
  H      -39.913    -362.824     373.733
  H      -39.876    -364.388     376.402
  H      -44.588    -365.436     371.650
  H      -39.746    -362.226     377.498
  H      -44.005    -363.952     372.324
  H      -37.968    -361.174     375.543
  H      -37.252    -361.982     377.804
  H      -37.331    -363.658     377.213
  P      -41.420    -360.363     376.799
  C      -39.920    -358.406     377.639
  O      -40.579    -359.624     377.950
  O      -42.162    -361.542     377.587
  O      -42.389    -359.498     376.063
  H      -43.089    -361.292     377.754
  H      -39.409    -358.045     378.507
  H      -40.641    -357.681     377.323
  H      -39.214    -358.573     376.853

 6  7  8  9  10  11  12  13  14  15  26  29  33  34 0
 6-311+G(2d,p)
 ****
 36  38  39  40  41 0
 6-311+G(2d,p)
 ****
 1  2  3  4  5  16  17  18  19  20  21  22  23  24  25 0
 3-21G
 ****
 27  28  30  31  32  35  37  42  43  44  45  46  47 0
 3-21G
 ****
 48  49 0
 3-21G
 ****


