%nproc=1
%NoSave
%Mem=1900MB
#P OB98/GEN NMR

erre ene a

0 1
  C      370.681     472.710      25.482
  O      371.639     471.645      25.440
  P      372.600     471.547      24.163
  C      371.556     469.612      22.768
  O      371.735     471.016      22.922
  C      371.006     469.285      21.371
  O      369.765     469.959      21.100
  C      371.947     469.685      20.243
  O      372.969     468.723      20.035
  C      370.983     469.721      19.065
  O      370.765     468.371      18.575
  C      369.703     470.267      19.690
  N      369.276     474.090      16.300
  C      369.442     472.756      16.138
  N      369.572     471.798      17.092
  C      369.479     472.348      18.322
  C      369.304     473.684      18.631
  C      369.183     474.582      17.564
  N      369.003     475.946      17.727
  N      369.254     473.876      20.001
  C      369.397     472.658      20.508
  N      369.542     471.697      19.532
  O      373.557     470.309      24.506
  O      373.394     472.790      23.902
  H      370.142     468.445      17.814
  H      374.449     470.468      24.146
  H      369.492     472.406      15.111
  H      369.401     472.410      21.563
  H      368.796     469.787      19.291
  H      371.376     470.297      18.205
  H      372.362     470.699      20.417
  H      370.823     468.190      21.329
  H      370.876     469.222      23.529
  H      368.896     476.514      16.897
  H      368.913     476.306      18.663
  H      372.523     469.093      22.931
  P      374.482     469.190      20.230
  C      374.971     469.048      17.683
  O      374.934     469.856      18.835
  O      375.284     467.826      20.289
  O      374.714     470.031      21.443
  H      376.086     467.918      20.847
  H      374.982     469.685      16.792
  H      374.098     468.380      17.612
  H      375.876     468.439      17.688
  H      370.116     472.646      26.388
  H      370.021     472.629      24.644
  H      371.191     473.650      25.446

 3  4  5  6  7  8  9  10  11  12  22  25  29  30  31  32 0
 6-311+G(2d,p)
 ****
 33  36  37 0
 6-311+G(2d,p)
 ****
 1  2  13  14  15  16  17  18  19  20  21  23  24  26 0
 3-21G
 ****
 27  28  34  35  38  39  40  41  42  43  44  45  46  47  48 0
 3-21G
 ****


