%nproc=1
%NoSave
%Mem=1900MB
#P OB98/GEN NMR

erre ene a

0 1
  C     -890.637    -897.200    -895.060
  O     -891.127    -896.780    -896.330
  H     -890.617    -896.330    -894.420
  H     -889.627    -897.610    -895.180
  H     -891.287    -897.960    -894.620
  P     -891.567    -897.910    -897.400
  C     -893.867    -896.940    -898.030
  O     -893.167    -897.970    -897.370
  C     -894.797    -896.180    -897.060
  O     -893.957    -895.540    -896.030
  C     -895.587    -895.060    -897.790
  O     -896.837    -894.770    -897.140
  C     -894.647    -893.850    -897.640
  O     -895.337    -892.600    -897.730
  C     -894.047    -894.110    -896.230
  N     -891.367    -890.170    -894.450
  C     -892.757    -890.280    -894.590
  N     -893.507    -889.240    -894.240
  N     -893.347    -891.370    -895.120
  C     -892.417    -892.310    -895.500
  C     -891.047    -892.300    -895.410
  C     -890.437    -891.120    -894.820
  O     -889.227    -890.930    -894.680
  N     -890.497    -893.450    -895.910
  C     -891.527    -894.130    -896.320
  N     -892.747    -893.520    -896.060
  O     -891.147    -899.290    -896.680
  O     -890.957    -897.800    -898.750
  H     -896.067    -892.640    -897.100
  H     -891.047    -900.000    -897.350
  H     -890.987    -889.320    -894.030
  H     -891.477    -895.130    -896.790
  H     -894.717    -893.700    -895.470
  H     -893.887    -893.880    -898.430
  H     -893.077    -888.310    -894.050
  H     -895.737    -895.280    -898.850
  H     -894.437    -889.180    -894.640
  H     -895.457    -896.900    -896.560
  H     -894.467    -897.410    -898.830
  H     -893.157    -896.250    -898.530
  P     -898.187    -894.950    -897.990
  C     -899.177    -896.940    -896.540
  O     -898.727    -896.450    -897.800
  O     -897.677    -894.940    -899.530
  O     -899.207    -893.910    -897.750
  H     -898.037    -894.160    -900.000
  H     -899.490    -897.958    -896.644
  H     -900.000    -896.347    -896.200
  H     -898.379    -896.883    -895.830

 6  7  8  9  10  11  12  13  14  15  26  29  33  34 0
 6-311+G(2d,p)
 ****
 36  38  39  40  41 0
 6-311+G(2d,p)
 ****
 1  2  3  4  5  16  17  18  19  20  21  22  23  24  25 0
 3-21G
 ****
 27  28  30  31  32  35  37  42  43  44  45  46  47 0
 3-21G
 ****
 48  49 0
 3-21G
 ****


