%nproc=1
%NoSave
%Mem=1900MB
#P OB98/GEN NMR

erre ene a

0 1
  C       31.798     978.635     -36.980
  O       32.713     977.743     -37.621
  P       33.890     978.430     -38.469
  C       35.392     976.379     -37.937
  O       35.287     977.791     -38.000
  C       36.844     975.931     -38.135
  O       37.422     976.481     -39.349
  C       37.756     976.349     -36.992
  O       37.613     975.469     -35.902
  C       39.138     976.252     -37.661
  O       39.643     974.902     -37.624
  C       38.833     976.684     -39.110
  N       42.453     980.230     -38.862
  C       42.402     978.974     -38.285
  N       43.497     978.593     -37.574
  N       41.385     978.159     -38.414
  C       40.385     978.670     -39.146
  C       40.328     979.887     -39.806
  C       41.449     980.784     -39.656
  O       41.551     981.893     -40.166
  N       39.161     980.018     -40.518
  C       38.461     978.935     -40.196
  N       39.187     978.063     -39.438
  O       33.928     979.932     -37.898
  O       33.646     978.405     -39.953
  H       39.148     974.357     -38.275
  H       33.597     980.546     -38.594
  H       43.259     980.827     -38.735
  H       37.448     978.732     -40.525
  H       39.377     976.054     -39.829
  H       39.875     976.877     -37.142
  H       44.307     979.180     -37.446
  H       37.553     977.390     -36.707
  H       43.474     977.678     -37.150
  H       36.838     974.833     -38.230
  H       34.761     975.929     -38.694
  H       35.005     976.039     -36.964
  P       36.963     976.042     -34.548
  C       34.592     974.987     -34.406
  O       35.379     976.097     -34.770
  O       37.415     977.583     -34.552
  O       37.404     975.351     -33.302
  H       37.713     977.834     -33.669
  H       33.601     975.326     -34.127
  H       35.030     974.431     -33.573
  H       34.501     974.310     -35.276
  H       31.062     978.069     -36.448
  H       31.316     979.243     -37.717
  H       32.331     979.261     -36.295

 3  4  5  6  7  8  9  10  11  12  23  26  30  31 0
 6-311+G(2d,p)
 ****
 33  35  36  37  38 0
 6-311+G(2d,p)
 ****
 1  2  13  14  15  16  17  18  19  20  21  22  24  25 0
 3-21G
 ****
 27  28  29  32  34  39  40  41  42  43  44  45  46  47  48  49 0
 3-21G
 ****


