%nproc=1
%NoSave
%Mem=1900MB
#P OB98/GEN NMR

erre ene a

0 1
  C      165.357      71.686      10.522
  O      165.292      72.751       9.588
  P      164.141      72.686       8.470
  C      164.106      72.108       5.937
  O      164.807      72.016       7.172
  C      164.668      71.128       4.905
  O      165.909      71.659       4.381
  C      164.943      69.729       5.458
  O      164.620      68.784       4.437
  C      166.445      69.726       5.673
  O      166.979      68.404       5.649
  C      166.915      70.636       4.527
  N      168.230      71.213       4.786
  C      169.335      70.519       4.282
  O      169.176      69.434       3.722
  N      170.589      71.044       4.469
  C      170.736      72.111       5.191
  N      171.997      72.594       5.344
  C      169.608      72.804       5.844
  C      168.396      72.319       5.583
  O      163.967      74.218       8.048
  O      162.859      72.074       8.932
  H      166.867      68.046       4.741
  H      163.043      74.405       7.792
  H      169.790      73.669       6.466
  H      167.508      72.776       6.001
  H      166.959      70.076       3.584
  H      166.683      70.177       6.644
  H      164.370      69.508       6.362
  H      163.960      71.073       4.068
  H      172.756      72.092       4.899
  H      164.214      73.121       5.541
  H      172.209      73.419       5.890
  H      163.042      71.921       6.110
  P      164.086      67.344       4.899
  C      165.146      65.014       5.084
  O      165.372      66.387       4.841
  O      163.278      66.871       3.595
  O      163.235      67.263       6.121
  H      162.842      66.018       3.772
  H      166.069      64.466       4.879
  H      164.358      64.633       4.431
  H      164.873      64.862       6.132
  H      166.164      71.858      11.203
  H      165.519      70.765      10.002
  H      164.437      71.632      11.066

 3  4  5  6  7  8  9  10  11  12  13  21  23  27  28  29  30  32 0
 6-311+G(2d,p)
 ****
 34  35 0
 6-311+G(2d,p)
 ****
 1  2  14  15  16  17  18  19  20  22  24  25  26 0
 3-21G
 ****
 31  33  36  37  38  39  40  41  42  43  44  45  46 0
 3-21G
 ****


