%nproc=1
%NoSave
%Mem=1900MB
#P OB98/GEN NMR

erre ene a

0 1
  C     -123.438    -131.803      95.391
  O     -122.236    -132.494      95.670
  H     -123.284    -131.181      94.503
  H     -123.697    -131.151      96.229
  H     -124.252    -132.502      95.191
  P     -122.222    -133.587      96.843
  C     -120.713    -135.160      95.462
  O     -120.874    -134.447      96.681
  C     -119.269    -135.654      95.310
  O     -118.468    -134.581      94.751
  C     -118.620    -136.087      96.633
  O     -117.780    -137.216      96.395
  C     -117.776    -134.886      97.017
  O     -116.669    -135.246      97.845
  C     -117.363    -134.340      95.648
  N     -113.665    -130.924      95.192
  C     -113.647    -132.288      94.978
  N     -112.471    -132.831      94.601
  N     -114.696    -133.058      95.121
  C     -115.816    -132.376      95.476
  C     -115.962    -131.033      95.718
  C     -114.788    -130.194      95.576
  O     -114.735    -128.982      95.771
  N     -117.253    -130.723      96.078
  C     -117.885    -131.883      96.056
  N     -117.053    -132.921      95.707
  O     -123.472    -134.404      96.958
  O     -121.952    -132.739      98.171
  H     -116.235    -136.016      97.418
  H     -122.766    -132.649      98.699
  H     -112.825    -130.380      95.078
  H     -118.933    -132.028      96.283
  H     -116.474    -134.844      95.246
  H     -118.391    -134.157      97.560
  H     -111.628    -132.294      94.449
  H     -119.359    -136.332      97.393
  H     -112.436    -133.826      94.409
  H     -119.255    -136.475      94.582
  H     -120.962    -134.489      94.633
  H     -121.405    -136.014      95.447
  P     -118.185    -138.635      97.029
  C     -118.642    -139.679      94.723
  O     -117.915    -139.786      95.938
  O     -119.529    -138.687      97.677
  O     -117.018    -138.891      98.105
  H     -117.397    -139.363      98.869
  H     -118.383    -140.493      94.079
  H     -118.400    -138.754      94.243
  H     -119.691    -139.709      94.931

 6  7  8  9  10  11  12  13  14  15  26  29  33  34 0
 6-311+G(2d,p)
 ****
 36  38  39  40  41 0
 6-311+G(2d,p)
 ****
 1  2  3  4  5  16  17  18  19  20  21  22  23  24  25 0
 3-21G
 ****
 27  28  30  31  32  35  37  42  43  44  45  46  47 0
 3-21G
 ****
 48  49 0
 3-21G
 ****


