%nproc=1
%NoSave
%Mem=1900MB
#P OB98/GEN NMR

erre ene a

0 1
  C     -899.160    -772.645    -202.809
  O     -898.030    -773.487    -202.668
  H     -899.420    -772.542    -203.869
  H     -900.000    -773.108    -202.299
  H     -898.970    -771.663    -202.366
  P     -896.630    -772.909    -203.207
  C     -895.320    -772.601    -200.983
  O     -896.060    -771.974    -202.030
  C     -894.680    -771.543    -200.083
  O     -893.660    -770.857    -200.811
  C     -895.710    -770.519    -199.570
  O     -895.390    -770.169    -198.193
  C     -895.460    -769.304    -200.481
  O     -895.830    -768.085    -199.857
  C     -893.950    -769.443    -200.710
  N     -891.080    -765.660    -202.628
  C     -891.160    -766.186    -201.381
  N     -891.970    -767.183    -200.949
  C     -892.650    -767.703    -201.963
  C     -892.660    -767.281    -203.308
  C     -891.830    -766.199    -203.600
  N     -891.750    -765.647    -204.858
  N     -893.560    -768.030    -204.064
  C     -894.060    -768.924    -203.177
  N     -893.560    -768.740    -201.907
  O     -897.100    -771.850    -204.319
  O     -895.680    -773.906    -203.778
  H     -895.540    -767.327    -200.406
  H     -897.320    -772.307    -205.149
  H     -890.540    -765.709    -200.632
  H     -894.790    -769.664    -203.436
  H     -893.340    -769.007    -199.899
  H     -896.010    -769.408    -201.396
  H     -896.740    -770.852    -199.648
  H     -894.190    -772.060    -199.229
  H     -894.530    -773.225    -201.414
  H     -891.180    -764.833    -204.996
  H     -892.350    -765.983    -205.586
  H     -895.980    -773.257    -200.415
  P     -896.630    -770.114    -197.219
  C     -896.200    -772.072    -195.564
  O     -896.970    -771.604    -196.676
  O     -897.870    -769.758    -198.148
  O     -896.460    -769.066    -196.113
  H     -898.370    -769.021    -197.785
  H     -896.516    -773.060    -195.302
  H     -896.344    -771.418    -194.730
  H     -895.164    -772.088    -195.829

 6  7  8  9  10  11  12  13  14  15  25  28  32  33  34  35 0
 6-311+G(2d,p)
 ****
 36  39  40 0
 6-311+G(2d,p)
 ****
 1  2  3  4  5  16  17  18  19  20  21  22  23  24 0
 3-21G
 ****
 26  27  29  30  31  37  38  41  42  43  44  45  46  47 0
 3-21G
 ****
 48 0
 3-21G
 ****


