%nproc=1
%NoSave
%Mem=1900MB
#P OB98/GEN NMR

erre ene a

0 1
  C      317.173    -184.565     266.476
  O      318.275    -183.981     267.148
  H      317.408    -184.626     265.410
  H      316.282    -183.944     266.610
  H      316.988    -185.570     266.860
  P      318.136    -183.815     268.736
  C      319.534    -185.985     269.098
  O      318.326    -185.282     269.356
  C      319.423    -187.438     269.580
  O      318.391    -188.111     268.793
  C      320.711    -188.253     269.407
  O      320.732    -189.267     270.430
  C      320.492    -188.904     268.053
  O      321.408    -189.952     267.837
  C      319.013    -189.265     268.183
  N      317.539    -193.023     265.040
  C      318.095    -193.046     266.276
  N      318.450    -192.005     267.053
  C      318.159    -190.837     266.451
  C      317.582    -190.655     265.202
  C      317.273    -191.821     264.480
  N      316.715    -191.798     263.221
  N      317.435    -189.306     264.924
  C      317.916    -188.689     265.988
  N      318.367    -189.571     266.930
  O      316.577    -183.515     268.939
  O      318.993    -182.757     269.351
  H      321.387    -190.248     266.899
  H      316.427    -182.552     268.992
  H      318.283    -194.034     266.684
  H      317.969    -187.614     266.121
  H      318.862    -190.120     268.855
  H      320.645    -188.181     267.246
  H      321.619    -187.650     269.478
  H      319.075    -187.444     270.621
  H      320.350    -185.482     269.631
  H      319.740    -185.975     268.023
  H      316.538    -192.679     262.762
  H      316.526    -190.910     262.782
  P      321.718    -189.088     271.692
  C      319.827    -188.630     273.442
  O      320.999    -188.158     272.784
  O      322.834    -188.099     271.099
  O      322.343    -190.348     272.207
  H      323.682    -188.249     271.562
  H      319.482    -187.889     274.132
  H      320.054    -189.532     273.971
  H      319.064    -188.824     272.717

 6  7  8  9  10  11  12  13  14  15  25  28  32  33  34  35 0
 6-311+G(2d,p)
 ****
 36  37  40 0
 6-311+G(2d,p)
 ****
 1  2  3  4  5  16  17  18  19  20  21  22  23  24 0
 3-21G
 ****
 26  27  29  30  31  38  39 41  42  43  44  45  46  47  48 0
 3-21G
 ****


