%nproc=1
%NoSave
%Mem=1900MB
#P OB98/GEN NMR

erre ene a

0 1
  C      136.662      -1.475    -139.093
  O      135.802      -1.176    -140.179
  P      135.159       0.296    -140.232
  C      137.046       1.288    -141.717
  O      136.379       1.314    -140.460
  C      136.410       2.270    -142.704
  O      136.356       3.581    -142.092
  C      137.163       2.397    -144.030
  O      136.194       2.559    -145.068
  C      137.939       3.691    -143.874
  O      138.251       4.274    -145.136
  C      136.977       4.513    -143.000
  N      137.663       5.582    -142.284
  C      137.170       6.881    -142.460
  O      136.254       7.088    -143.256
  N      137.762       7.912    -141.776
  C      138.819       7.686    -141.062
  N      139.369       8.741    -140.399
  C      139.442       6.353    -140.946
  C      138.808       5.356    -141.557
  O      134.739       0.557    -138.711
  O      134.006       0.439    -141.171
  H      137.407       4.444    -145.612
  H      133.944       1.119    -138.661
  H      140.347       6.224    -140.368
  H      139.179       4.341    -141.508
  H      136.184       4.958    -143.615
  H      138.876       3.502    -143.338
  H      137.794       1.531    -144.244
  H      135.375       1.952    -142.883
  H      138.930       9.646    -140.508
  H      136.970       0.283    -142.139
  H      140.192       8.658    -139.822
  H      138.105       1.518    -141.570
  P      136.581       2.038    -146.534
  C      135.902      -0.375    -145.982
  O      136.960       0.493    -146.337
  O      138.030       2.699    -146.734
  O      135.674       2.375    -147.668
  H      138.356       2.508    -147.632
  H      136.268      -1.405    -146.016
  H      135.071      -0.272    -146.684
  H      135.567      -0.156    -144.965
  H      137.015      -2.481    -139.184
  H      136.126      -1.367    -138.173
  H      137.494      -0.803    -139.102

 3  4  5  6  7  8  9  10  11  12  13  21  23  27  28  29  30  32 0
 6-311+G(2d,p)
 ****
 34  35 0
 6-311+G(2d,p)
 ****
 1  2  14  15  16  17  18  19  20  22  24  25  26 0
 3-21G
 ****
 31  33  36  37  38  39  40  41  42  43  44  45  46 0
 3-21G
 ****


