%nproc=1
%NoSave
%Mem=1900MB
#P OB98/GEN NMR

erre ene a

0 1
  C      141.614      83.418    -130.390
  O      142.299      84.035    -129.318
  H      142.196      83.556    -131.304
  H      140.626      83.866    -130.532
  H      141.511      82.344    -130.201
  P      141.526      84.194    -127.919
  C      143.150      82.774    -126.497
  O      141.856      82.855    -127.092
  C      143.651      81.326    -126.467
  O      144.062      80.915    -127.787
  C      144.874      81.119    -125.588
  O      144.619      81.251    -124.205
  C      145.446      79.814    -126.125
  O      144.861      78.654    -125.540
  C      145.065      79.893    -127.624
  N      146.228      80.128    -128.473
  C      147.027      79.021    -128.730
  O      146.803      77.899    -128.268
  N      148.126      79.242    -129.512
  C      148.522      80.453    -130.004
  O      149.545      80.597    -130.667
  C      147.653      81.595    -129.678
  C      146.560      81.385    -128.937
  O      140.061      84.501    -128.015
  O      142.368      85.313    -127.145
  H      145.325      77.879    -125.916
  H      141.852      85.689    -126.392
  H      148.711      78.449    -129.718
  H      147.936      82.571    -130.052
  H      145.902      82.212    -128.682
  H      144.601      78.950    -127.946
  H      146.524      79.749    -125.954
  H      145.604      81.897    -125.834
  H      142.823      80.680    -126.152
  H      143.068      83.147    -125.471
  H      143.850      83.409    -127.049
  P      145.199      82.448    -123.316
  C      143.145      83.284    -121.961
  O      144.014      83.507    -123.064
  O      146.554      82.961    -123.683
  O      145.326      81.735    -121.873
  H      146.107      82.115    -121.427
  H      142.413      84.063    -121.920
  H      143.713      83.281    -121.054
  H      142.655      82.340    -122.078

 6  7  8  9  10  11  12  13  14  15  16  26  31  32  33  34  35 0
 6-311+G(2d,p)
 ****
 36  37 0
 6-311+G(2d,p)
 ****
 1  2  3  4  5  17  18  19  20  21  22  23  24  25 0
 3-21G
 ****
 27  28  29  30  38  39  40  41  42  43  44  45 0
 3-21G
 ****


