%nproc=1
%NoSave
%Mem=1900MB
#P OB98/GEN NMR

erre ene a

0 1
  C       30.311    -100.448      -4.502
  O       31.090     -99.288      -4.739
  P       32.156     -99.338      -5.939
  C       34.007    -100.159      -4.313
  O       33.290    -100.392      -5.516
  C       35.025    -101.273      -4.060
  O       34.318    -102.540      -3.950
  C       36.085    -101.432      -5.164
  O       37.299    -101.828      -4.517
  C       35.509    -102.568      -5.994
  O       36.448    -103.187      -6.855
  C       34.936    -103.451      -4.888
  N       33.967    -108.427      -5.551
  C       34.999    -107.781      -4.962
  N       35.185    -106.452      -4.816
  C       34.156    -105.769      -5.346
  C       33.047    -106.287      -5.994
  C       32.970    -107.686      -6.088
  N       31.919    -108.342      -6.699
  N       32.215    -105.276      -6.430
  C       32.814    -104.164      -6.054
  N       33.976    -104.412      -5.378
  O       32.902     -97.929      -5.818
  O       31.565     -99.546      -7.299
  H       36.819    -102.528      -7.474
  H       33.096     -97.554      -6.698
  H       35.779    -108.417      -4.553
  H       32.457    -103.162      -6.256
  H       35.722    -103.999      -4.354
  H       34.705    -102.172      -6.628
  H       36.263    -100.513      -5.729
  H       35.511    -101.085      -3.094
  H       33.309    -100.136      -3.471
  H       32.054    -109.325      -6.889
  H       31.297    -107.783      -7.269
  H       34.500     -99.181      -4.368
  P       38.696    -101.283      -5.090
  C       39.091    -103.743      -5.725
  O       39.135    -102.398      -6.161
  O       39.676    -101.613      -3.865
  O       38.709     -99.861      -5.532
  H       39.584    -102.537      -3.571
  H       39.317    -104.394      -6.574
  H       38.095    -103.987      -5.344
  H       39.841    -103.906      -4.945
  H       29.650    -100.272      -3.680
  H       30.956    -101.270      -4.271
  H       29.739    -100.678      -5.377

 3  4  5  6  7  8  9  10  11  12  22  25  29  30  31  32 0
 6-311+G(2d,p)
 ****
 33  36  37 0
 6-311+G(2d,p)
 ****
 1  2  13  14  15  16  17  18  19  20  21  23  24  26 0
 3-21G
 ****
 27  28  34  35  38  39  40  41  42  43  44  45  46  47  48 0
 3-21G
 ****


