%nproc=1
%NoSave
%Mem=1900MB
#P OB98/GEN NMR

erre ene a

0 1
  C     -403.632    -330.778    -269.654
  O     -403.155    -332.050    -269.256
  H     -404.625    -330.894    -270.103
  H     -402.969    -330.329    -270.403
  H     -403.713    -330.115    -268.789
  P     -401.651    -332.162    -268.717
  C     -402.466    -333.479    -266.646
  O     -401.780    -332.333    -267.130
  C     -401.464    -334.516    -266.144
  O     -400.580    -333.929    -265.170
  C     -402.129    -335.703    -265.450
  O     -402.708    -336.580    -266.391
  C     -400.953    -336.261    -264.667
  O     -400.103    -337.059    -265.496
  C     -400.235    -334.966    -264.221
  N     -400.590    -334.564    -262.854
  C     -399.946    -335.262    -261.833
  O     -399.134    -336.148    -262.088
  N     -400.258    -334.944    -260.527
  C     -401.121    -334.011    -260.277
  N     -401.385    -333.745    -258.971
  C     -401.807    -333.246    -261.340
  C     -401.501    -333.574    -262.592
  O     -400.698    -331.092    -269.152
  O     -401.186    -333.617    -269.199
  H     -399.289    -337.211    -264.982
  H     -400.783    -333.570    -270.084
  H     -402.518    -332.467    -261.080
  H     -401.966    -333.057    -263.423
  H     -399.148    -335.095    -264.270
  H     -401.287    -336.881    -263.837
  H     -402.877    -335.349    -264.731
  H     -400.854    -334.852    -266.995
  H     -400.903    -334.305    -258.281
  H     -403.053    -333.890    -267.477
  H     -401.972    -332.989    -258.662
  H     -403.157    -333.209    -265.835
  P     -404.191    -337.151    -266.169
  C     -405.390    -335.278    -267.477
  O     -405.152    -335.860    -266.199
  O     -404.357    -338.036    -264.986
  O     -404.519    -337.865    -267.562
  H     -404.037    -338.727    -267.654
  H     -406.038    -334.434    -267.369
  H     -405.850    -336.001    -268.118
  H     -404.461    -334.962    -267.904

 6  7  8  9  10  11  12  13  14  15  16  26  30  31  32  33  35 0
 6-311+G(2d,p)
 ****
 37  38 0
 6-311+G(2d,p)
 ****
 1  2  3  4  5  17  18  19  20  21  22  23  24  25 0
 3-21G
 ****
 27  28  29  34  36  39  40  41  42  43  44  45  46 0
 3-21G
 ****


