%nproc=1
%NoSave
%Mem=1900MB
#P OB98/GEN NMR

erre ene a

0 1
  C      238.349      -7.468    -750.372
  O      237.518      -8.525    -749.936
  H      238.367      -7.464    -751.464
  H      239.367      -7.609    -750.000
  H      237.955      -6.512    -750.019
  P      237.447      -8.772    -748.350
  C      235.174      -7.494    -748.316
  O      236.503      -7.582    -747.824
  C      234.192      -7.984    -747.253
  O      234.368      -9.397    -747.011
  C      234.356      -7.320    -745.889
  O      233.800      -6.015    -745.826
  C      233.583      -8.302    -745.026
  O      232.170      -8.123    -745.238
  C      234.070      -9.646    -745.608
  N      235.250     -10.175    -744.918
  C      235.012     -11.011    -743.820
  O      233.864     -11.275    -743.470
  N      236.085     -11.507    -743.121
  C      237.290     -11.212    -743.495
  N      238.315     -11.727    -742.760
  C      237.589     -10.346    -744.648
  C      236.534      -9.867    -745.309
  O      238.896      -8.323    -747.839
  O      237.034     -10.138    -747.918
  H      231.729      -8.888    -744.825
  H      238.912      -8.296    -746.850
  H      238.613     -10.116    -744.915
  H      236.675      -9.223    -746.170
  H      233.276     -10.401    -745.570
  H      233.762      -8.176    -743.960
  H      235.402      -7.312    -745.567
  H      233.179      -7.841    -747.647
  H      238.076     -12.271    -741.938
  H      235.099      -8.118    -749.212
  H      239.276     -11.438    -742.877
  H      234.938      -6.462    -748.579
  P      234.326      -5.045    -744.661
  C      234.485      -2.682    -745.748
  O      235.161      -3.876    -745.372
  O      235.451      -5.919    -743.941
  O      233.271      -4.585    -743.703
  H      235.481      -5.733    -742.982
  H      235.179      -2.009    -746.206
  H      234.063      -2.222    -744.879
  H      233.705      -2.917    -746.442

 6  7  8  9  10  11  12  13  14  15  16  26  30  31  32  33  35 0
 6-311+G(2d,p)
 ****
 37  38 0
 6-311+G(2d,p)
 ****
 1  2  3  4  5  17  18  19  20  21  22  23  24  25 0
 3-21G
 ****
 27  28  29  34  36  39  40  41  42  43  44  45  46 0
 3-21G
 ****


