%nproc=1
%NoSave
%Mem=1900MB
#P OB98/GEN NMR

erre ene a

0 1
  C      249.294     657.237    -330.817
  O      248.704     656.499    -329.763
  H      248.655     658.093    -331.045
  H      249.371     656.609    -331.711
  H      250.283     657.599    -330.527
  P      249.577     655.294    -329.153
  C      249.796     656.407    -326.784
  O      249.317     655.331    -327.570
  C      248.884     656.642    -325.576
  O      247.672     657.292    -326.031
  C      248.487     655.355    -324.850
  O      248.390     655.633    -323.453
  C      247.089     655.063    -325.392
  O      246.325     654.251    -324.511
  C      246.547     656.494    -325.603
  N      245.449     656.539    -326.566
  C      244.311     657.258    -326.188
  O      244.261     657.801    -325.087
  N      243.245     657.307    -327.045
  C      243.277     656.641    -328.152
  N      242.177     656.705    -328.953
  C      244.437     655.831    -328.573
  C      245.483     655.831    -327.745
  O      251.066     655.857    -329.310
  O      249.342     653.975    -329.807
  H      246.840     653.435    -324.322
  H      251.160     656.785    -329.039
  H      244.418     655.281    -329.506
  H      246.383     655.267    -327.970
  H      246.193     656.909    -324.652
  H      247.161     654.547    -326.354
  H      249.183     654.537    -325.023
  H      249.383     657.340    -324.894
  H      241.394     657.251    -328.620
  H      249.848     657.324    -327.383
  H      242.070     656.185    -329.811
  H      250.810     656.160    -326.450
  P      248.168     654.430    -322.421
  C      250.069     654.921    -320.746
  O      248.669     654.877    -320.963
  O      248.636     653.093    -322.880
  O      246.564     654.419    -322.246
  H      246.272     653.485    -322.225
  H      250.265     655.232    -319.741
  H      250.514     655.616    -321.427
  H      250.485     653.948    -320.906

 6  7  8  9  10  11  12  13  14  15  16  26  30  31  32  33  35 0
 6-311+G(2d,p)
 ****
 37  38 0
 6-311+G(2d,p)
 ****
 1  2  3  4  5  17  18  19  20  21  22  23  24  25 0
 3-21G
 ****
 27  28  29  34  36  39  40  41  42  43  44  45  46 0
 3-21G
 ****


