%nproc=1
%NoSave
%Mem=1900MB
#P OB98/GEN NMR

erre ene a

0 1
  C      427.978     378.020    -123.739
  O      428.206     376.908    -124.584
  H      428.896     378.607    -123.678
  H      427.708     377.679    -122.736
  H      427.181     378.649    -124.148
  P      426.973     375.900    -124.787
  C      426.591     375.315    -122.289
  O      427.040     374.866    -123.558
  C      427.344     374.598    -121.174
  O      427.181     373.167    -121.285
  C      428.845     374.865    -121.151
  O      429.136     376.084    -120.493
  C      429.353     373.647    -120.393
  O      429.195     373.810    -118.969
  C      428.437     372.534    -120.919
  N      431.064     368.459    -122.327
  C      430.635     368.855    -121.078
  N      431.010     368.072    -120.039
  N      429.918     369.922    -120.858
  C      429.648     370.623    -121.986
  C      430.000     370.323    -123.285
  C      430.771     369.122    -123.511
  O      431.124     368.682    -124.600
  N      429.523     371.268    -124.158
  C      428.919     372.154    -123.386
  N      428.982     371.816    -122.060
  O      427.423     375.008    -126.039
  O      425.650     376.544    -125.019
  H      429.356     372.957    -118.528
  H      426.629     374.730    -126.534
  H      431.600     367.614    -122.433
  H      428.426     373.048    -123.742
  H      428.214     371.785    -120.153
  H      430.415     373.476    -120.572
  H      431.811     367.460    -120.098
  H      429.256     374.855    -122.170
  H      430.718     368.372    -119.115
  H      426.888     374.900    -120.223
  H      425.520     375.105    -122.194
  H      426.747     376.397    -122.213
  P      430.031     377.161    -121.280
  C      432.254     376.207    -120.324
  O      431.387     377.326    -120.438
  O      429.265     378.541    -121.016
  O      430.204     376.885    -122.734
  H      429.555     379.214    -121.657
  H      433.107     376.475    -119.737
  H      432.573     375.902    -121.299
  H      431.735     375.400    -119.850

 6  7  8  9  10  11  12  13  14  15  26  29  33  34 0
 6-311+G(2d,p)
 ****
 36  38  39  40  41 0
 6-311+G(2d,p)
 ****
 1  2  3  4  5  16  17  18  19  20  21  22  23  24  25 0
 3-21G
 ****
 27  28  30  31  32  35  37  42  43  44  45  46  47 0
 3-21G
 ****
 48  49 0
 3-21G
 ****


