%nproc=1
%NoSave
%Mem=1900MB
#P OB98/GEN NMR

erre ene a

0 1
  C      251.401      20.907    -100.562
  O      252.197      21.837     -99.853
  P      253.524      21.355     -99.098
  C      252.425      21.423     -96.775
  O      253.090      20.617     -97.743
  C      252.080      20.598     -95.537
  O      251.015      19.662     -95.823
  C      253.227      19.743     -95.022
  O      254.222      20.520     -94.381
  C      252.482      18.773     -94.115
  O      252.206      19.374     -92.841
  C      251.173      18.556     -94.903
  N      251.148      17.277     -95.596
  C      250.372      16.274     -95.009
  O      249.821      16.466     -93.923
  N      250.246      15.073     -95.664
  C      250.937      14.851     -96.740
  N      250.726      13.670     -97.378
  C      251.891      15.829     -97.300
  C      251.931      17.016     -96.698
  O      254.576      22.399     -98.932
  O      254.065      20.145    -100.000
  H      255.012      20.293    -100.187
  H      253.067      19.499     -92.399
  H      252.491      15.569     -98.162
  H      252.586      17.803     -97.055
  H      250.313      18.607     -94.226
  H      253.054      17.860     -93.925
  H      253.678      19.190     -95.855
  H      251.733      21.286     -94.755
  H      250.049      13.032     -96.973
  H      251.508      21.819     -97.221
  H      250.947      13.533     -98.361
  H      253.068      22.267     -96.506
  P      255.749      20.107     -94.650
  C      255.955      18.668     -92.506
  O      256.004      18.706     -93.920
  O      256.575      21.155     -93.765
  O      256.165      20.162     -96.083
  H      257.399      21.399     -94.226
  H      255.799      17.635     -92.190
  H      255.140      19.284     -92.116
  H      256.908      19.022     -92.101
  H      250.564      21.412    -100.996
  H      251.052      20.151     -99.890
  H      251.985      20.455    -101.336

 3  4  5  6  7  8  9  10  11  12  13  24  27  28  29  30  32 0
 6-311+G(2d,p)
 ****
 34  35 0
 6-311+G(2d,p)
 ****
 1  2  14  15  16  17  18  19  20  21  22  23  25  26 0
 3-21G
 ****
 31  33  36  37  38  39  40  41  42  43  44  45  46 0
 3-21G
 ****


