%nproc=1
%NoSave
%Mem=1900MB
#P OB98/GEN NMR

erre ene a

0 1
  C      -34.089     -15.672       0.576
  O      -33.365     -14.445       0.630
  P      -32.170     -14.215      -0.413
  C      -29.618     -14.900      -0.565
  O      -30.809     -14.798       0.184
  C      -28.428     -15.066       0.395
  O      -28.122     -13.810       1.038
  C      -28.686     -16.084       1.503
  O      -28.374     -17.404       1.097
  C      -27.797     -15.566       2.617
  O      -26.426     -15.927       2.371
  C      -27.989     -14.038       2.470
  N      -29.138     -13.410       3.157
  C      -29.027     -13.041       4.495
  O      -28.019     -13.203       5.176
  N      -30.132     -12.449       5.049
  C      -31.250     -12.040       4.382
  O      -32.185     -11.462       4.919
  C      -31.255     -12.320       2.942
  C      -30.229     -12.987       2.409
  O      -31.950     -12.633      -0.395
  O      -32.449     -14.727      -1.793
  H      -25.903     -15.603       3.126
  H      -32.166     -12.250      -1.266
  H      -30.097     -12.241       6.036
  H      -32.101     -11.971       2.362
  H      -30.224     -13.199       1.342
  H      -27.092     -13.503       2.805
  H      -28.063     -16.012       3.573
  H      -29.724     -16.016       1.844
  H      -27.551     -15.370      -0.190
  H      -29.472     -14.014      -1.188
  H      -29.682     -15.757      -1.242
  P      -29.548     -18.409       0.679
  C      -31.665     -19.297       1.825
  O      -30.450     -18.589       1.995
  O      -29.122     -19.673       0.009
  O      -30.489     -17.515      -0.266
  H      -30.270     -17.663      -1.214
  H      -32.100     -19.487       2.810
  H      -31.485     -20.253       1.325
  H      -32.365     -18.696       1.238
  H      -34.848     -15.672       1.330
  H      -33.419     -16.489       0.744
  H      -34.544     -15.776      -0.387

 3  4  5  6  7  8  9  10  11  12  13  23  28  29  30  31  32 0
 6-311+G(2d,p)
 ****
 33  34 0
 6-311+G(2d,p)
 ****
 1  2  14  15  16  17  18  19  20  21  22  24  25  26  27 0
 3-21G
 ****
 35  36  37  38  39  40  41  42  43  44  45 0
 3-21G
 ****


