%nproc=1
%NoSave
%Mem=1900MB
#P OB98/GEN NMR

erre ene a

0 1
  C     -302.249     242.683     -50.180
  O     -303.071     241.532     -50.233
  H     -302.451     243.215     -49.248
  H     -302.475     243.344     -51.021
  H     -301.196     242.393     -50.202
  P     -302.907     240.594     -51.524
  C     -301.045     238.876     -50.990
  O     -301.362     240.163     -51.503
  C     -299.793     238.323     -51.667
  O     -299.969     238.274     -53.094
  C     -298.536     239.153     -51.433
  O     -297.964     238.859     -50.170
  C     -297.659     238.667     -52.575
  O     -297.067     237.399     -52.231
  C     -298.674     238.475     -53.719
  N     -297.191     240.293     -58.284
  C     -296.783     239.223     -57.570
  N     -297.191     238.826     -56.345
  C     -298.120     239.661     -55.856
  C     -298.633     240.794     -56.471
  C     -298.137     241.099     -57.749
  N     -298.563     242.188     -58.480
  N     -299.571     241.404     -55.665
  C     -299.661     240.625     -54.606
  N     -298.776     239.576     -54.658
  O     -303.421     241.157     -52.802
  O     -303.639     239.259     -51.025
  H     -297.793     236.757     -52.124
  H     -303.441     239.090     -50.087
  H     -296.031     238.600     -58.044
  H     -300.356     240.765     -53.788
  H     -298.452     237.582     -54.311
  H     -296.838     239.354     -52.791
  H     -298.732     240.221     -51.561
  H     -299.652     237.292     -51.320
  H     -301.884     238.188     -51.141
  H     -298.037     242.428     -59.305
  H     -299.174     242.851     -58.029
  H     -300.876     238.983     -49.914
  P     -297.695     240.025     -49.103
  C     -299.661     239.053     -47.759
  O     -299.069     240.231     -48.297
  O     -297.116     241.274     -49.667
  O     -296.734     239.359     -48.014
  H     -296.070     240.006     -47.709
  H     -300.565     239.310     -47.247
  H     -298.981     238.593     -47.073
  H     -299.882     238.371     -48.553

 6  7  8  9  10  11  12  13  14  15  25  28  32  33  34  35 0
 6-311+G(2d,p)
 ****
 36  39  40 0
 6-311+G(2d,p)
 ****
 1  2  3  4  5  16  17  18  19  20  21  22  23  24 0
 3-21G
 ****
 26  27  29  30  31  37  38  41  42  43  44  45  46  47 0
 3-21G
 ****
 48 0
 3-21G
 ****


