%nproc=1
%NoSave
%Mem=1900MB
#P OB98/GEN NMR

erre ene a

0 1
  C      448.148     573.788    -155.104
  O      448.224     574.755    -154.071
  P      449.492     574.683    -153.073
  C      448.256     573.739    -151.003
  O      448.909     574.853    -151.588
  C      447.356     574.174    -149.827
  O      448.202     574.669    -148.757
  C      446.359     575.278    -150.192
  O      445.146     575.023    -149.475
  C      447.003     576.536    -149.634
  O      446.029     577.546    -149.367
  C      447.726     575.984    -148.402
  N      448.815     576.836    -147.960
  C      448.537     577.739    -146.917
  O      447.395     577.833    -146.469
  N      449.551     578.544    -146.447
  C      450.702     578.537    -147.051
  N      451.677     579.349    -146.542
  C      450.998     577.691    -148.228
  C      450.025     576.870    -148.609
  O      450.229     576.075    -153.350
  O      450.383     573.509    -153.302
  H      446.476     578.315    -148.947
  H      451.197     575.990    -153.239
  H      451.967     577.751    -148.708
  H      450.159     576.193    -149.463
  H      447.014     575.858    -147.557
  H      447.725     576.932    -150.351
  H      446.136     575.331    -151.264
  H      446.835     573.292    -149.453
  H      451.441     579.928    -145.748
  H      448.997     573.045    -150.605
  H      452.601     579.404    -146.944
  H      447.661     573.212    -151.760
  P      444.007     574.163    -150.207
  C      442.469     576.217    -150.095
  O      442.624     574.849    -149.777
  O      443.990     572.824    -149.319
  O      444.184     573.842    -151.652
  H      443.371     572.175    -149.711
  H      441.438     576.521    -149.878
  H      442.668     576.395    -151.159
  H      443.151     576.827    -149.486
  H      447.264     573.954    -155.684
  H      448.114     572.809    -154.674
  H      449.009     573.871    -155.734

 3  4  5  6  7  8  9  10  11  12  13  21  23  27  28  29  30  32 0
 6-311+G(2d,p)
 ****
 34  35 0
 6-311+G(2d,p)
 ****
 1  2  14  15  16  17  18  19  20  22  24  25  26 0
 3-21G
 ****
 31  33  36  37  38  39  40  41  42  43  44  45  46 0
 3-21G
 ****


