%nproc=1
%NoSave
%Mem=1900MB
#P OB98/GEN NMR

erre ene a

0 1
  C      -22.183     -81.578    -144.711
  O      -22.784     -82.792    -144.306
  H      -21.429     -81.795    -145.472
  H      -21.695     -81.097    -143.858
  H      -22.934     -80.908    -145.137
  P      -23.909     -82.688    -143.167
  C      -23.910     -82.134    -140.633
  O      -23.144     -82.251    -141.823
  C      -23.066     -82.511    -139.419
  O      -22.674     -83.900    -139.482
  C      -21.783     -81.703    -139.268
  O      -22.033     -80.457    -138.640
  C      -20.943     -82.637    -138.410
  O      -21.298     -82.536    -137.016
  C      -21.319     -84.015    -138.971
  N      -16.601     -85.491    -139.994
  C      -17.183     -85.132    -138.796
  N      -16.368     -85.113    -137.716
  N      -18.440     -84.810    -138.665
  C      -19.123     -84.843    -139.835
  C      -18.665     -85.198    -141.082
  C      -17.276     -85.583    -141.205
  O      -16.717     -85.975    -142.225
  N      -19.664     -85.125    -142.017
  C      -20.713     -84.689    -141.345
  N      -20.430     -84.486    -140.019
  O      -24.298     -84.217    -142.885
  O      -25.106     -81.874    -143.522
  H      -20.791     -83.191    -136.508
  H      -25.234     -84.263    -142.614
  H      -15.630     -85.747    -140.027
  H      -21.690     -84.505    -141.770
  H      -21.329     -84.788    -138.195
  H      -19.880     -82.400    -138.477
  H      -15.366     -85.022    -137.810
  H      -21.294     -81.565    -140.241
  H      -16.781     -84.828    -136.838
  H      -23.700     -82.394    -138.530
  H      -24.771     -82.807    -140.695
  H      -24.269     -81.104    -140.536
  P      -20.928     -79.304    -138.804
  C      -18.687     -78.724    -137.616
  O      -19.849     -79.542    -137.640
  O      -21.697     -77.984    -138.326
  O      -20.374     -79.164    -140.181
  H      -21.221     -77.190    -138.635
  H      -18.071     -79.004    -136.787
  H      -18.975     -77.698    -137.516
  H      -18.140     -78.854    -138.526

 6  7  8  9  10  11  12  13  14  15  26  29  33  34 0
 6-311+G(2d,p)
 ****
 36  38  39  40  41 0
 6-311+G(2d,p)
 ****
 1  2  3  4  5  16  17  18  19  20  21  22  23  24  25 0
 3-21G
 ****
 27  28  30  31  32  35  37  42  43  44  45  46  47 0
 3-21G
 ****
 48  49 0
 3-21G
 ****


