%nproc=1
%NoSave
%Mem=1900MB
#P OB98/GEN NMR

erre ene a

0 1
  C      142.245      52.390     424.781
  O      143.288      52.223     425.716
  P      143.337      53.077     427.070
  C      141.308      51.920     428.158
  O      141.832      53.136     427.633
  C      140.752      52.148     429.569
  O      141.855      52.533     430.447
  C      139.692      53.265     429.622
  O      138.464      52.885     430.244
  C      140.441      54.405     430.295
  O      139.599      55.375     430.886
  C      141.385      53.645     431.232
  N      142.478      54.481     431.725
  C      142.193      55.338     432.783
  O      141.098      55.428     433.330
  N      143.210      56.163     433.176
  C      144.416      56.297     432.556
  O      145.246      57.128     432.901
  C      144.646      55.393     431.418
  C      143.694      54.524     431.073
  O      144.004      54.405     426.964
  O      144.039      52.075     428.104
  H      140.131      55.886     431.526
  H      143.567      51.236     428.245
  H      143.017      56.790     433.941
  H      145.590      55.484     430.901
  H      143.834      53.844     430.239
  H      140.851      53.236     432.090
  H      141.028      54.919     429.525
  H      139.393      53.573     428.614
  H      140.343      51.197     429.923
  H      142.109      51.182     428.204
  H      140.535      51.529     427.487
  P      137.062      53.629     430.041
  C      135.994      52.207     428.145
  O      136.604      53.424     428.522
  O      137.013      55.039     430.530
  O      136.032      52.714     430.857
  H      135.298      53.264     431.186
  H      136.207      52.021     427.089
  H      134.912      52.293     428.275
  H      136.370      51.368     428.738
  H      142.399      51.730     423.953
  H      142.236      53.402     424.433
  H      141.309      52.165     425.247

 3  4  5  6  7  8  9  10  11  12  13  23  28  29  30  31  32 0
 6-311+G(2d,p)
 ****
 33  34 0
 6-311+G(2d,p)
 ****
 1  2  14  15  16  17  18  19  20  21  22  24  25  26  27 0
 3-21G
 ****
 35  36  37  38  39  40  41  42  43  44  45 0
 3-21G
 ****


