%nproc=1
%NoSave
%Mem=1900MB
#P OB98/GEN NMR

erre ene a

0 1
  C      357.506    -520.225      40.215
  O      358.015    -521.119      41.202
  P      359.605    -521.193      41.384
  C      359.961    -520.852      43.962
  O      359.905    -521.740      42.859
  C      358.548    -520.398      44.381
  O      357.709    -521.579      44.501
  C      358.462    -519.700      45.731
  O      357.227    -518.978      45.799
  C      358.409    -520.877      46.685
  O      357.914    -520.496      47.965
  C      357.540    -521.892      45.905
  N      357.913    -523.302      46.158
  C      357.131    -524.048      47.036
  O      356.147    -523.602      47.629
  N      357.540    -525.337      47.260
  C      358.603    -525.957      46.676
  O      358.972    -527.081      46.977
  C      359.302    -525.169      45.652
  C      358.941    -523.905      45.450
  O      360.051    -519.658      41.438
  O      360.298    -521.940      40.297
  H      357.081    -519.993      47.806
  H      360.472    -519.398      40.600
  H      357.020    -525.867      47.946
  H      360.114    -525.649      45.111
  H      359.463    -523.303      44.706
  H      356.482    -521.788      46.166
  H      359.415    -521.283      46.833
  H      359.302    -519.036      45.953
  H      358.129    -519.773      43.592
  H      360.576    -519.988      43.710
  H      360.446    -521.348      44.808
  P      357.297    -517.397      46.060
  C      355.949    -516.056      44.333
  O      355.910    -516.797      45.538
  O      358.529    -516.708      45.573
  O      357.148    -517.295      47.653
  H      357.469    -516.422      47.960
  H      354.986    -516.155      43.827
  H      356.737    -516.418      43.664
  H      356.131    -515.002      44.561
  H      356.437    -520.278      40.203
  H      357.888    -520.500      39.254
  H      357.811    -519.226      40.448

 3  4  5  6  7  8  9  10  11  12  13  23  28  29  30  31  32 0
 6-311+G(2d,p)
 ****
 33  34 0
 6-311+G(2d,p)
 ****
 1  2  14  15  16  17  18  19  20  21  22  24  25  26  27 0
 3-21G
 ****
 35  36  37  38  39  40  41  42  43  44  45 0
 3-21G
 ****


