%nproc=1
%NoSave
%Mem=1900MB
#P OB98/GEN NMR

erre ene a

0 1
  C       19.254    -108.916     -65.132
  O       18.509    -109.151     -63.951
  H       20.245    -108.544     -64.850
  H       18.764    -108.169     -65.761
  H       19.378    -109.850     -65.687
  P       16.934    -109.435     -64.096
  C       14.854    -107.991     -64.608
  O       16.271    -108.007     -64.430
  C       14.426    -106.849     -65.530
  O       14.931    -107.055     -66.869
  C       12.917    -106.719     -65.701
  O       12.226    -106.327     -64.538
  C       12.816    -105.862     -66.953
  O       12.966    -104.470     -66.675
  C       14.030    -106.372     -67.771
  N       13.631    -107.227     -68.885
  C       12.677    -106.697     -69.749
  O       12.163    -105.588     -69.598
  N       12.301    -107.508     -70.788
  C       12.738    -108.780     -71.012
  O       12.345    -109.463     -71.953
  C       13.719    -109.301     -70.042
  C       14.115    -108.511     -69.037
  O       16.294    -110.145     -62.940
  O       16.811    -110.224     -65.484
  H       13.034    -104.013     -67.535
  H       15.932    -110.667     -65.567
  H       11.621    -107.135     -71.434
  H       14.077    -110.312     -70.183
  H       14.839    -108.874     -68.311
  H       14.594    -105.520     -68.183
  H       11.858    -105.990     -67.464
  H       12.518    -107.707     -65.969
  H       14.866    -105.919     -65.149
  H       14.397    -107.850     -63.623
  H       14.529    -108.953     -65.018
  P       10.672    -106.601     -64.294
  C        8.403    -105.546     -65.061
  O        9.823    -105.529     -65.131
  O       10.253    -106.886     -62.886
  O       10.444    -107.954     -65.154
  H        9.767    -108.484     -64.681
  H        8.006    -104.767     -65.678
  H        8.094    -105.391     -64.048
  H        8.040    -106.492     -65.404

 6  7  8  9  10  11  12  13  14  15  16  26  31  32  33  34  35 0
 6-311+G(2d,p)
 ****
 36  37 0
 6-311+G(2d,p)
 ****
 1  2  3  4  5  17  18  19  20  21  22  23  24  25 0
 3-21G
 ****
 27  28  29  30  38  39  40  41  42  43  44  45 0
 3-21G
 ****


