%nproc=1
%NoSave
%Mem=1900MB
#P OB98/GEN NMR

erre ene a

0 1
  C       -8.575     -72.020     -51.869
  O       -8.984     -70.651     -51.908
  P       -8.739     -69.786     -50.579
  C      -10.954     -70.643     -49.541
  O       -9.556     -70.458     -49.373
  C      -11.478     -71.823     -48.713
  O      -11.396     -71.536     -47.293
  C      -12.933     -72.184     -49.019
  O      -13.063     -73.600     -48.871
  C      -13.696     -71.506     -47.898
  O      -14.982     -72.094     -47.719
  C      -12.715     -71.698     -46.731
  N      -12.949     -70.772     -45.625
  C      -13.806     -71.199     -44.609
  O      -14.385     -72.284     -44.701
  N      -14.023     -70.375     -43.535
  C      -13.475     -69.200     -43.504
  N      -13.732     -68.428     -42.414
  C      -12.610     -68.683     -44.582
  C      -12.390     -69.516     -45.597
  O       -9.536     -68.428     -50.868
  O       -7.295     -69.520     -50.297
  H      -15.323     -71.820     -46.840
  H       -8.965     -67.660     -50.683
  H      -12.190     -67.691     -44.523
  H      -11.769     -69.230     -46.432
  H      -12.784     -72.719     -46.333
  H      -13.827     -70.440     -48.119
  H      -13.256     -71.885     -50.020
  H      -10.835     -72.688     -48.911
  H      -14.324     -68.820     -41.692
  H      -11.179     -70.820     -50.595
  H      -13.359     -67.500     -42.287
  H      -11.469     -69.715     -49.273
  P      -13.194     -74.493     -50.195
  C      -15.716     -74.760     -50.599
  O      -14.557     -74.003     -50.885
  O      -13.640     -75.909     -49.584
  O      -12.003     -74.635     -51.079
  H      -13.688     -76.573     -50.294
  H      -16.582     -74.250     -51.027
  H      -15.857     -74.849     -49.518
  H      -15.637     -75.753     -51.050
  H       -8.791     -72.484     -52.809
  H       -9.104     -72.528     -51.090
  H       -7.523     -72.073     -51.678

 3  4  5  6  7  8  9  10  11  12  13  21  23  27  28  29  30  32 0
 6-311+G(2d,p)
 ****
 34  35 0
 6-311+G(2d,p)
 ****
 1  2  14  15  16  17  18  19  20  22  24  25  26 0
 3-21G
 ****
 31  33  36  37  38  39  40  41  42  43  44  45  46 0
 3-21G
 ****


