%nproc=1
%NoSave
%Mem=1900MB
#P OB98/GEN NMR

erre ene a

0 1
  C     -291.040     292.451      34.996
  O     -289.956     292.143      34.142
  H     -290.729     292.275      36.032
  H     -291.904     291.818      34.777
  H     -291.314     293.504      34.889
  P     -290.238     292.071      32.561
  C     -291.642     289.917      32.818
  O     -291.632     291.285      32.410
  C     -292.732     289.132      32.083
  O     -293.925     289.935      31.961
  C     -292.358     288.754      30.655
  O     -291.344     287.781      30.563
  C     -293.717     288.485      30.027
  O     -294.184     287.152      30.226
  C     -294.630     289.478      30.791
  N     -295.058     290.588      29.945
  C     -296.422     290.678      29.702
  O     -297.244     289.866      30.140
  N     -296.821     291.710      28.897
  C     -295.996     292.605      28.282
  O     -296.414     293.487      27.534
  C     -294.561     292.448      28.555
  C     -294.161     291.461      29.361
  O     -289.127     291.504      31.724
  O     -290.629     293.576      32.179
  H     -294.411     287.068      31.175
  H     -290.566     293.721      31.202
  H     -297.810     291.792      28.717
  H     -293.876     293.143      28.079
  H     -293.102     291.324      29.577
  H     -295.532     288.964      31.148
  H     -293.698     288.656      28.945
  H     -291.967     289.650      30.160
  H     -292.977     288.243      32.675
  H     -291.847     289.895      33.892
  H     -290.660     289.470      32.633
  P     -290.037     287.966      29.661
  C     -290.330     286.079      27.896
  O     -290.379     287.474      28.169
  O     -288.732     287.544      30.268
  O     -289.993     289.570      29.491
  H     -289.054     289.833      29.459
  H     -290.580     285.907      26.870
  H     -291.030     285.568      28.523
  H     -289.344     285.712      28.089

 6  7  8  9  10  11  12  13  14  15  16  26  31  32  33  34  35 0
 6-311+G(2d,p)
 ****
 36  37 0
 6-311+G(2d,p)
 ****
 1  2  3  4  5  17  18  19  20  21  22  23  24  25 0
 3-21G
 ****
 27  28  29  30  38  39  40  41  42  43  44  45 0
 3-21G
 ****


