%nproc=1
%NoSave
%Mem=1900MB
#P OB98/GEN NMR

erre ene a

0 1
  C      -92.902      17.834     -67.898
  O      -93.967      16.987     -68.338
  P      -94.155      16.828     -69.921
  C      -92.605      14.751     -70.095
  O      -92.859      16.087     -70.507
  C      -92.151      13.911     -71.288
  O      -93.188      13.795     -72.286
  C      -90.953      14.501     -72.022
  O      -89.756      14.298     -71.290
  C      -91.025      13.743     -73.343
  O      -90.472      12.423     -73.197
  C      -92.541      13.645     -73.574
  N      -94.195      14.520     -78.335
  C      -93.753      13.399     -77.725
  N      -93.327      13.249     -76.453
  C      -93.400      14.413     -75.787
  C      -93.834      15.634     -76.275
  C      -94.242      15.667     -77.618
  N      -94.679      16.812     -78.244
  N      -93.763      16.602     -75.294
  C      -93.273      15.981     -74.241
  N      -93.049      14.653     -74.486
  O      -94.014      18.326     -70.463
  O      -95.462      16.221     -70.312
  H      -89.507      12.524     -73.073
  H      -94.883      18.659     -70.754
  H      -93.736      12.503     -78.339
  H      -93.064      16.446     -73.286
  H      -92.838      12.670     -73.975
  H      -90.480      14.238     -74.152
  H      -91.106      15.573     -72.196
  H      -91.904      12.905     -70.923
  H      -93.505      14.313     -69.656
  H      -94.879      16.766     -79.231
  H      -94.636      17.689     -77.745
  H      -91.845      14.763     -69.307
  P      -89.243      15.493     -70.352
  C      -90.159      14.004     -68.471
  O      -90.102      15.314     -69.005
  O      -89.931      16.760     -71.039
  O      -87.766      15.565     -70.175
  H      -90.866      16.592     -71.254
  H      -90.740      14.030     -67.546
  H      -89.153      13.641     -68.249
  H      -90.652      13.333     -69.179
  H      -92.883      17.856     -66.828
  H      -93.056      18.824     -68.273
  H      -91.971      17.455     -68.264

 3  4  5  6  7  8  9  10  11  12  22  25  29  30  31  32 0
 6-311+G(2d,p)
 ****
 33  36  37 0
 6-311+G(2d,p)
 ****
 1  2  13  14  15  16  17  18  19  20  21  23  24  26 0
 3-21G
 ****
 27  28  34  35  38  39  40  41  42  43  44  45  46  47  48 0
 3-21G
 ****


