%nproc=1
%NoSave
%Mem=1900MB
#P OB98/GEN NMR

erre ene a

0 1
  C       14.684      37.962    -100.869
  O       15.502      37.454     -99.829
  P       16.854      36.696    -100.253
  C       15.711      34.389     -99.906
  O       16.413      35.251    -100.794
  C       16.232      32.954     -99.993
  O       15.872      32.402    -101.283
  C       17.750      32.830     -99.832
  O       18.016      31.631     -99.105
  C       18.245      32.663    -101.258
  O       19.505      31.995    -101.305
  C       17.077      31.888    -101.891
  N       17.044      32.032    -103.343
  C       17.119      30.855    -104.095
  O       17.285      29.772    -103.531
  N       17.053      30.938    -105.464
  C       17.027      32.103    -106.035
  N       16.961      32.133    -107.394
  C       17.074      33.371    -105.282
  C       17.059      33.263    -103.954
  O       17.538      36.370     -98.844
  O       17.752      37.481    -101.152
  H       19.817      32.001    -102.235
  H       18.513      36.385     -98.919
  H       17.088      34.315    -105.808
  H       17.068      34.140    -103.320
  H       17.144      30.821    -101.647
  H       18.355      33.646    -101.731
  H       18.193      33.684     -99.311
  H       15.720      32.356     -99.230
  H       16.946      31.250    -107.888
  H       14.652      34.385    -100.179
  H       16.938      32.993    -107.926
  H       15.798      34.772     -98.884
  P       19.007      31.724     -97.848
  C       21.029      31.165     -99.328
  O       20.432      32.118     -98.469
  O       19.227      30.173     -97.496
  O       18.556      32.490     -96.648
  H       19.771      30.093     -96.693
  H       21.915      31.611     -99.784
  H       20.334      30.874    -100.120
  H       21.334      30.285     -98.754
  H       13.824      38.438    -100.446
  H       14.371      37.158    -101.502
  H       15.239      38.673    -101.444

 3  4  5  6  7  8  9  10  11  12  13  21  23  27  28  29  30  32 0
 6-311+G(2d,p)
 ****
 34  35 0
 6-311+G(2d,p)
 ****
 1  2  14  15  16  17  18  19  20  22  24  25  26 0
 3-21G
 ****
 31  33  36  37  38  39  40  41  42  43  44  45  46 0
 3-21G
 ****


