%nproc=1
%NoSave
%Mem=1900MB
#P OB98/GEN NMR

erre ene a

0 1
  C      285.522     555.720      93.510
  O      284.290     555.645      94.199
  H      286.332     555.570      94.227
  H      285.642     556.704      93.045
  H      285.582     554.938      92.746
  P      282.938     555.876      93.373
  C      282.511     553.414      92.707
  O      282.888     554.713      92.266
  C      281.674     552.718      91.640
  O      281.290     551.402      92.085
  C      280.376     553.445      91.285
  O      280.630     554.496      90.367
  C      279.580     552.309      90.665
  O      280.057     552.058      89.329
  C      279.949     551.128      91.585
  N      279.026     548.307      95.701
  C      279.966     548.137      94.704
  N      280.751     547.043      94.800
  N      280.116     548.957      93.695
  C      279.216     549.968      93.691
  C      278.227     550.233      94.611
  C      278.118     549.354      95.759
  O      277.315     549.485      96.678
  N      277.450     551.293      94.225
  C      277.999     551.701      93.097
  N      279.070     550.923      92.724
  O      282.730     557.251      92.820
  O      281.777     555.456      94.392
  H      279.876     552.858      88.805
  H      281.455     556.226      94.896
  H      278.956     547.638      96.448
  H      277.667     552.552      92.512
  H      279.988     550.180      91.039
  H      278.515     552.529      90.593
  H      280.586     546.300      95.466
  H      279.856     553.798      92.182
  H      281.406     546.869      94.045
  H      282.304     552.582      90.753
  H      281.936     553.535      93.629
  H      283.401     552.813      92.927
  P      279.581     555.692      90.151
  C      281.026     557.505      91.296
  O      279.851     556.718      91.349
  O      278.161     555.259      90.005
  O      280.150     556.494      88.893
  H      279.859     556.113      88.027
  H      281.071     558.138      92.158
  H      281.012     558.107      90.412
  H      281.883     556.865      91.279

 6  7  8  9  10  11  12  13  14  15  26  29  33  34 0
 6-311+G(2d,p)
 ****
 36  38  39  40  41 0
 6-311+G(2d,p)
 ****
 1  2  3  4  5  16  17  18  19  20  21  22  23  24  25 0
 3-21G
 ****
 27  28  30  31  32  35  37  42  43  44  45  46  47 0
 3-21G
 ****
 48  49 0
 3-21G
 ****


