%nproc=1
%NoSave
%Mem=1900MB
#P OB98/GEN NMR

erre ene a

0 1
  C     -120.136    -163.006     148.671
  O     -121.033    -164.096     148.640
  H     -119.836    -162.770     147.646
  H     -119.243    -163.270     149.243
  H     -120.609    -162.122     149.106
  P     -121.770    -164.527     149.995
  C     -123.385    -162.576     150.495
  O     -123.235    -163.879     149.952
  C     -124.829    -162.085     150.340
  O     -125.092    -161.859     148.921
  C     -125.893    -163.081     150.842
  O     -127.013    -162.306     151.294
  C     -126.217    -163.826     149.561
  O     -127.365    -164.627     149.673
  C     -126.259    -162.641     148.587
  N     -126.255    -162.993     147.172
  C     -127.483    -163.082     146.524
  O     -128.572    -162.881     147.058
  N     -127.431    -163.425     145.198
  C     -126.301    -163.664     144.472
  O     -126.316    -163.935     143.277
  C     -125.036    -163.562     145.214
  C     -125.069    -163.230     146.506
  O     -121.009    -164.285     151.255
  O     -122.069    -166.088     149.780
  H     -121.415    -166.617     150.275
  H     -127.453    -165.178     148.865
  H     -128.312    -163.490     144.711
  H     -124.122    -163.755     144.670
  H     -124.151    -163.137     147.077
  H     -127.136    -162.018     148.797
  H     -125.401    -164.509     149.311
  H     -125.536    -163.715     151.659
  H     -124.929    -161.115     150.841
  H     -122.707    -161.902     149.961
  H     -123.106    -162.594     151.554
  P     -127.837    -162.638     152.631
  C     -128.687    -160.194     152.749
  O     -129.036    -161.576     152.755
  O     -126.989    -162.730     153.857
  O     -128.580    -164.024     152.338
  H     -128.746    -164.491     153.179
  H     -129.574    -159.602     152.837
  H     -128.189    -159.956     151.832
  H     -128.036    -159.987     153.573

 6  7  8  9  10  11  12  13  14  15  16  27  31  32  33  34  35 0
 6-311+G(2d,p)
 ****
 36  37 0
 6-311+G(2d,p)
 ****
 1  2  3  4  5  17  18  19  20  21  22  23  24  25 0
 3-21G
 ****
 26  28  29  30  38  39  40  41  42  43  44  45 0
 3-21G
 ****


