%nproc=1
%NoSave
%Mem=1900MB
#P OB98/GEN NMR

erre ene a

0 1
  C     -232.155     115.781     740.842
  O     -233.363     116.500     740.520
  P     -233.434     117.592     739.357
  C     -235.167     119.263     738.403
  O     -234.787     118.442     739.515
  C     -236.568     119.848     738.576
  O     -237.568     118.801     738.531
  C     -236.802     120.556     739.907
  O     -236.189     121.848     739.910
  C     -238.322     120.574     739.968
  O     -238.862     121.671     739.191
  C     -238.678     119.227     739.328
  N     -239.046     118.214     740.325
  C     -240.290     118.355     740.945
  O     -241.008     119.343     740.683
  N     -240.693     117.413     741.854
  C     -239.878     116.450     742.175
  N     -240.324     115.523     743.079
  C     -238.519     116.311     741.621
  C     -238.176     117.214     740.709
  O     -233.222     117.042     737.979
  O     -232.287     118.657     739.719
  H     -238.547     122.498     739.630
  H     -231.944     119.044     738.887
  H     -237.866     115.515     741.944
  H     -237.195     117.186     740.245
  H     -239.526     119.338     738.635
  H     -238.708     120.695     740.993
  H     -236.406     119.951     740.739
  H     -236.761     120.536     737.739
  H     -241.272     115.651     743.438
  H     -235.147     118.635     737.496
  H     -239.775     114.741     743.404
  H     -234.430     120.067     738.291
  P     -234.972     122.131     740.911
  C     -232.862     123.599     740.787
  O     -234.196     123.428     740.357
  O     -234.101     120.969     741.233
  O     -235.681     122.704     742.228
  H     -235.153     122.447     743.014
  H     -232.322     124.231     740.071
  H     -232.341     122.628     740.875
  H     -232.847     124.087     741.775
  H     -232.346     115.106     741.650
  H     -231.393     116.475     741.129
  H     -231.830     115.228     739.985

 3  4  5  6  7  8  9  10  11  12  13  23  27  28  29  30  32 0
 6-311+G(2d,p)
 ****
 34  35 0
 6-311+G(2d,p)
 ****
 1  2  14  15  16  17  18  19  20  21  22  24  25  26 0
 3-21G
 ****
 31  33  36  37  38  39  40  41  42  43  44  45  46 0
 3-21G
 ****


