%nproc=1
%NoSave
%Mem=1900MB
#P OB98/GEN NMR

erre ene a

0 1
  C      309.519     432.081      55.691
  O      309.968     431.902      54.358
  P      311.459     432.394      54.001
  C      310.661     433.535      51.801
  O      311.506     432.561      52.406
  C      310.949     433.621      50.303
  O      312.326     433.977      50.063
  C      310.737     432.314      49.554
  O      309.372     432.078      49.248
  C      311.529     432.572      48.284
  O      310.754     433.374      47.373
  C      312.730     433.372      48.811
  N      316.196     430.447      46.566
  C      315.258     431.291      46.005
  N      315.200     431.318      44.660
  N      314.454     432.052      46.707
  C      314.621     431.916      48.046
  C      315.518     431.111      48.719
  C      316.397     430.270      47.931
  O      317.201     429.466      48.368
  N      315.395     431.249      50.075
  C      314.431     432.139      50.228
  N      313.899     432.541      49.031
  O      312.348     431.089      54.260
  O      311.938     433.565      54.793
  H      310.637     434.246      47.802
  H      313.290     431.334      54.339
  H      316.788     429.880      45.984
  H      314.076     432.506      51.183
  H      313.012     434.181      48.134
  H      311.791     431.652      47.750
  H      315.748     430.712      44.064
  H      311.180     431.465      50.095
  H      314.479     431.884      44.222
  H      310.311     434.413      49.880
  H      310.845     434.511      52.266
  H      309.619     433.263      51.976
  P      308.553     431.142      50.259
  C      307.195     430.435      48.161
  O      307.168     430.820      49.522
  O      308.136     432.151      51.429
  O      309.317     429.967      50.771
  H      308.013     431.672      52.272
  H      306.221     430.002      47.900
  H      307.972     429.683      47.980
  H      307.379     431.307      47.528
  H      308.519     431.712      55.783
  H      309.539     433.122      55.937
  H      310.160     431.544      56.358

 3  4  5  6  7  8  9  10  11  12  23  26  30  31 0
 6-311+G(2d,p)
 ****
 33  35  36  37  38 0
 6-311+G(2d,p)
 ****
 1  2  13  14  15  16  17  18  19  20  21  22  24  25 0
 3-21G
 ****
 27  28  29  32  34  39  40  41  42  43  44  45  46  47  48  49 0
 3-21G
 ****


