%nproc=1
%NoSave
%Mem=1900MB
#P OB98/GEN NMR

erre ene a

0 1
  C      715.420     132.783    -253.349
  O      715.278     131.416    -252.910
  P      714.980     130.270    -253.995
  C      717.337     129.357    -254.683
  O      716.225     130.180    -255.001
  C      717.203     128.000    -255.378
  O      717.096     128.162    -256.808
  C      718.391     127.068    -255.172
  O      718.381     126.467    -253.879
  C      718.191     126.069    -256.301
  O      717.243     125.047    -255.932
  C      717.612     126.965    -257.417
  N      718.601     127.272    -258.453
  C      719.038     126.213    -259.234
  O      718.679     125.041    -259.046
  N      719.939     126.519    -260.213
  C      720.485     127.756    -260.452
  O      721.303     127.959    -261.334
  C      720.047     128.822    -259.540
  C      719.146     128.531    -258.596
  O      713.857     130.961    -254.909
  O      714.486     128.965    -253.452
  H      717.141     124.474    -256.713
  H      713.290     130.272    -255.305
  H      720.253     125.764    -260.815
  H      720.473     129.814    -259.676
  H      718.816     129.315    -257.924
  H      716.757     126.471    -257.896
  H      719.112     125.557    -256.578
  H      719.323     127.620    -255.339
  H      716.274     127.522    -255.022
  H      717.371     129.210    -253.599
  H      718.261     129.865    -254.999
  P      719.750     125.777    -253.401
  C      720.227     127.539    -251.526
  O      720.610     126.958    -252.755
  O      720.444     125.470    -254.809
  O      719.526     124.570    -252.544
  H      720.241     126.152    -255.482
  H      719.733     126.810    -250.867
  H      719.533     128.367    -251.729
  H      721.108     127.935    -251.017
  H      715.614     133.411    -252.504
  H      714.517     133.099    -253.828
  H      716.234     132.853    -254.040

 3  4  5  6  7  8  9  10  11  12  13  23  28  29  30  31  32 0
 6-311+G(2d,p)
 ****
 33  34 0
 6-311+G(2d,p)
 ****
 1  2  14  15  16  17  18  19  20  21  22  24  25  26 0
 3-21G
 ****
 27  35  36  37  38  39  40  41  42  43  44  45 0
 3-21G
 ****


