%nproc=1
%NoSave
%Mem=1900MB
#P OB98/GEN NMR

erre ene a

0 1
  C       76.873    -534.648     484.835
  O       77.430    -535.866     485.279
  H       77.590    -533.846     485.022
  H       75.957    -534.441     485.400
  H       76.647    -534.679     483.767
  P       76.808    -537.238     484.742
  C       75.271    -539.100     485.657
  O       75.824    -537.811     485.879
  C       74.608    -539.661     486.918
  O       75.611    -539.932     487.924
  C       73.632    -538.671     487.549
  O       72.328    -538.671     486.996
  C       73.609    -539.140     489.008
  O       72.661    -540.203     489.189
  C       75.034    -539.648     489.219
  N       75.723    -536.853     493.437
  C       74.644    -537.641     493.086
  N       73.596    -537.640     493.940
  N       74.601    -538.351     491.987
  C       75.681    -538.182     491.189
  C       76.804    -537.414     491.423
  C       76.865    -536.675     492.670
  O       77.797    -535.954     493.024
  N       77.689    -537.493     490.381
  C       77.082    -538.242     489.486
  N       75.869    -538.709     489.943
  O       78.042    -538.264     484.809
  O       76.226    -537.186     483.361
  H       72.795    -540.586     490.079
  H       77.917    -538.973     484.154
  H       75.714    -536.352     494.310
  H       77.480    -538.501     488.510
  H       75.047    -540.592     489.787
  H       73.316    -538.338     489.683
  H       73.539    -537.022     494.736
  H       74.043    -537.659     487.524
  H       72.699    -537.985     493.594
  H       74.123    -540.618     486.681
  H       76.091    -539.747     485.349
  H       74.551    -539.068     484.833
  P       71.627    -537.292     486.592
  C       69.461    -536.114     487.445
  O       70.558    -536.953     487.741
  O       70.718    -537.709     485.343
  O       72.565    -536.186     486.256
  H       71.189    -537.505     484.506
  H       68.856    -535.997     488.319
  H       68.877    -536.553     486.663
  H       69.819    -535.157     487.128

 6  7  8  9  10  11  12  13  14  15  26  29  33  34 0
 6-311+G(2d,p)
 ****
 36  38  39  40  41 0
 6-311+G(2d,p)
 ****
 1  2  3  4  5  16  17  18  19  20  21  22  23  24  25 0
 3-21G
 ****
 27  28  30  31  32  35  37  42  43  44  45  46  47 0
 3-21G
 ****
 48  49 0
 3-21G
 ****


