%nproc=1
%NoSave
%Mem=1900MB
#P OB98/GEN NMR

erre ene a

0 1
  C     -228.451    -891.840     -65.157
  O     -227.870    -892.250     -66.409
  P     -227.021    -893.610     -66.480
  C     -228.677    -894.510     -68.295
  O     -227.951    -894.760     -67.099
  C     -228.742    -895.770     -69.168
  O     -227.416    -896.130     -69.611
  C     -229.268    -897.000     -68.437
  O     -230.681    -896.970     -68.312
  C     -228.771    -898.120     -69.345
  O     -229.654    -898.300     -70.482
  C     -227.406    -897.570     -69.813
  N     -226.283    -898.220     -69.130
  C     -225.249    -898.690     -69.933
  O     -225.267    -898.600     -71.161
  N     -224.188    -899.250     -69.260
  C     -224.105    -899.460     -67.922
  O     -223.148    -900.000     -67.395
  C     -225.279    -899.030     -67.130
  C     -226.289    -898.450     -67.751
  O     -226.960    -894.040     -64.932
  O     -225.648    -893.490     -67.063
  H     -230.549    -898.420     -70.136
  H     -226.144    -894.580     -64.782
  H     -223.414    -899.560     -69.838
  H     -225.273    -899.210     -66.067
  H     -227.169    -898.130     -67.193
  H     -227.276    -897.710     -70.894
  H     -228.716    -899.080     -68.818
  H     -228.803    -897.090     -67.460
  H     -229.333    -895.540     -70.053
  H     -228.194    -893.690     -68.859
  H     -229.695    -894.170     -68.042
  P     -231.332    -897.940     -67.223
  C     -231.652    -895.700     -65.907
  O     -231.433    -897.090     -65.866
  O     -230.141    -898.980     -66.989
  O     -232.618    -898.550     -67.702
  H     -229.255    -898.560     -67.072
  H     -232.294    -895.410     -66.728
  H     -230.687    -895.180     -65.988
  H     -232.120    -895.410     -64.965
  H     -228.978    -890.919     -65.293
  H     -227.676    -891.704     -64.432
  H     -229.131    -892.592     -64.816

 3  4  5  6  7  8  9  10  11  12  13  23  28  29  30  31  32 0
 6-311+G(2d,p)
 ****
 33  34 0
 6-311+G(2d,p)
 ****
 1  2  14  15  16  17  18  19  20  21  22  24  25  26 0
 3-21G
 ****
 27  35  36  37  38  39  40  41  42  43  44  45 0
 3-21G
 ****


