%nproc=1
%NoSave
%Mem=1900MB
#P OB98/GEN NMR

erre ene a

0 1
  C      505.108    -391.233     185.898
  O      504.481    -391.666     184.705
  H      505.737    -392.047     186.276
  H      504.370    -390.979     186.662
  H      505.750    -390.369     185.694
  P      503.314    -390.745     184.096
  C      502.018    -392.808     183.228
  O      502.690    -391.599     182.880
  C      501.137    -393.300     182.074
  O      500.142    -392.312     181.755
  C      501.902    -393.532     180.776
  O      502.792    -394.631     180.808
  C      500.797    -393.496     179.730
  O      500.148    -394.746     179.538
  C      499.799    -392.479     180.356
  N      499.784    -391.210     179.642
  C      499.378    -391.263     178.314
  O      499.070    -392.317     177.744
  N      499.387    -390.076     177.641
  C      499.794    -388.873     178.140
  O      499.814    -387.844     177.470
  C      500.240    -388.880     179.544
  C      500.212    -390.027     180.223
  O      503.713    -389.352     183.712
  O      502.162    -390.802     185.205
  H      499.395    -394.589     178.933
  H      501.507    -390.074     185.075
  H      499.080    -390.096     176.678
  H      500.577    -387.935     179.977
  H      500.538    -390.061     181.260
  H      498.785    -392.891     180.330
  H      501.175    -393.173     178.754
  H      502.533    -392.648     180.590
  H      500.619    -394.215     182.396
  H      501.382    -392.602     184.099
  H      502.752    -393.572     183.500
  P      504.381    -394.477     180.806
  C      504.549    -396.253     178.912
  O      505.009    -395.832     180.189
  O      505.010    -393.879     182.029
  O      504.593    -393.432     179.595
  H      505.357    -392.865     179.830
  H      505.048    -397.157     178.633
  H      504.758    -395.493     178.189
  H      503.494    -396.426     178.952

 6  7  8  9  10  11  12  13  14  15  16  26  31  32  33  34  35 0
 6-311+G(2d,p)
 ****
 36  37 0
 6-311+G(2d,p)
 ****
 1  2  3  4  5  17  18  19  20  21  22  23  24  25 0
 3-21G
 ****
 27  28  29  30  38  39  40  41  42  43  44  45 0
 3-21G
 ****


