%nproc=1
%NoSave
%Mem=1900MB
#P OB98/GEN NMR

erre ene a

0 1
  C     -319.682    -223.798    -329.290
  O     -319.800    -224.930    -328.445
  H     -318.624    -223.658    -329.536
  H     -320.051    -222.900    -328.792
  H     -320.234    -223.963    -330.216
  P     -321.217    -225.201    -327.742
  C     -320.106    -225.196    -325.409
  O     -321.082    -224.593    -326.255
  C     -320.000    -224.446    -324.077
  O     -319.418    -223.139    -324.283
  C     -321.344    -224.186    -323.410
  O     -321.975    -225.348    -322.912
  C     -321.021    -223.041    -322.454
  O     -320.509    -223.479    -321.196
  C     -319.916    -222.283    -323.236
  N     -320.394    -221.009    -323.756
  C     -320.330    -219.936    -322.872
  O     -319.936    -220.026    -321.707
  N     -320.800    -218.737    -323.356
  C     -321.348    -218.537    -324.587
  O     -321.786    -217.445    -324.943
  C     -321.414    -219.712    -325.466
  C     -320.934    -220.879    -325.019
  O     -321.704    -226.620    -327.774
  O     -322.206    -224.167    -328.465
  H     -320.159    -222.691    -320.738
  H     -323.151    -224.413    -328.310
  H     -320.753    -217.943    -322.729
  H     -321.841    -219.585    -326.454
  H     -320.974    -221.761    -325.648
  H     -319.062    -222.083    -322.571
  H     -321.913    -222.431    -322.253
  H     -322.021    -223.777    -324.163
  H     -319.330    -225.015    -323.409
  H     -319.142    -225.148    -325.923
  H     -320.364    -226.247    -325.234
  P     -323.503    -225.387    -322.436
  C     -322.751    -225.613    -319.959
  O     -323.563    -224.914    -320.900
  O     -324.314    -226.566    -322.859
  O     -324.107    -224.095    -323.211
  H     -325.026    -224.299    -323.444
  H     -322.892    -225.193    -318.985
  H     -321.722    -225.524    -320.240
  H     -323.029    -226.646    -319.946

 6  7  8  9  10  11  12  13  14  15  16  26  31  32  33  34  35 0
 6-311+G(2d,p)
 ****
 36  37 0
 6-311+G(2d,p)
 ****
 1  2  3  4  5  17  18  19  20  21  22  23  24  25 0
 3-21G
 ****
 27  28  29  30  38  39  40  41  42  43  44  45 0
 3-21G
 ****


