%nproc=1
%NoSave
%Mem=1900MB
#P OB98/GEN NMR

erre ene a

0 1
  C     -283.796     800.948    -287.393
  O     -285.004     800.252    -287.663
  P     -286.259     800.498    -286.701
  C     -286.915     799.787    -284.275
  O     -286.051     799.589    -285.390
  C     -286.905     798.557    -283.367
  O     -287.481     797.424    -284.086
  C     -285.516     798.138    -282.890
  O     -285.648     797.591    -281.570
  C     -285.157     797.017    -283.857
  O     -284.120     796.172    -283.384
  C     -286.521     796.349    -284.005
  N     -286.598     795.467    -285.177
  C     -286.197     794.146    -285.014
  O     -285.775     793.670    -283.950
  N     -286.219     793.366    -286.137
  C     -286.515     793.790    -287.390
  O     -286.399     793.074    -288.387
  C     -286.932     795.190    -287.515
  C     -286.961     795.961    -286.421
  O     -287.474     799.782    -287.469
  O     -286.559     801.935    -286.409
  H     -283.316     796.710    -283.307
  H     -288.006     800.434    -287.938
  H     -285.938     792.395    -286.035
  H     -287.210     795.559    -288.504
  H     -287.248     797.002    -286.478
  H     -286.761     795.778    -283.108
  H     -284.816     797.452    -284.810
  H     -284.782     798.948    -282.889
  H     -287.566     798.761    -282.511
  H     -287.927     799.965    -284.637
  H     -286.597     800.683    -283.717
  P     -284.710     798.186    -280.402
  C     -282.447     797.390    -279.347
  O     -283.332     797.369    -280.456
  O     -285.444     797.620    -279.104
  O     -284.610     799.688    -280.421
  H     -285.727     796.682    -279.204
  H     -282.992     797.437    -278.405
  H     -281.791     798.245    -279.434
  H     -281.856     796.478    -279.361
  H     -283.059     800.678    -288.120
  H     -283.446     800.689    -286.416
  H     -283.974     802.002    -287.440

 3  4  5  6  7  8  9  10  11  12  13  23  28  29  30  31  32 0
 6-311+G(2d,p)
 ****
 33  34 0
 6-311+G(2d,p)
 ****
 1  2  14  15  16  17  18  19  20  21  22  24  25  26 0
 3-21G
 ****
 27  35  36  37  38  39  40  41  42  43  44  45 0
 3-21G
 ****


