%nproc=1
%NoSave
%Mem=1900MB
#P OB98/GEN NMR

erre ene a

0 1
  C     -351.873    -483.018     131.590
  O     -350.804    -483.399     130.748
  H     -352.577    -482.417     131.007
  H     -351.498    -482.408     132.416
  H     -352.396    -483.896     131.979
  P     -349.691    -484.406     131.312
  C     -348.521    -482.325     132.298
  O     -348.946    -483.662     132.527
  C     -347.150    -482.073     132.936
  O     -347.277    -482.220     134.377
  C     -346.062    -483.039     132.457
  O     -344.827    -482.332     132.348
  C     -345.977    -484.059     133.578
  O     -344.697    -484.682     133.647
  C     -346.313    -483.210     134.801
  N     -345.425    -487.163     137.832
  C     -344.610    -486.552     136.894
  N     -343.375    -487.088     136.726
  N     -344.970    -485.515     136.182
  C     -346.217    -485.073     136.472
  C     -347.123    -485.588     137.375
  C     -346.715    -486.754     138.136
  O     -347.404    -487.344     138.969
  N     -348.296    -484.877     137.369
  C     -348.102    -483.931     136.462
  N     -346.858    -484.015     135.884
  O     -348.772    -484.977     130.277
  O     -350.529    -485.551     132.045
  H     -344.777    -485.437     134.267
  H     -350.543    -486.369     131.519
  H     -345.101    -487.963     138.339
  H     -348.821    -483.169     136.189
  H     -345.435    -482.691     135.204
  H     -346.731    -484.839     133.422
  H     -343.029    -487.870     137.258
  H     -346.307    -483.494     131.497
  H     -342.750    -486.636     136.066
  H     -346.866    -481.029     132.746
  H     -349.266    -481.648     132.741
  H     -348.476    -482.138     131.219
  P     -344.501    -481.526     131.002
  C     -343.815    -483.742     129.892
  O     -344.564    -482.542     129.756
  O     -343.289    -480.658     131.045
  O     -345.830    -480.638     130.793
  H     -345.579    -479.779     130.394
  H     -343.930    -484.336     129.010
  H     -344.170    -484.290     130.740
  H     -342.781    -483.503     130.029

 6  7  8  9  10  11  12  13  14  15  26  29  33  34 0
 6-311+G(2d,p)
 ****
 36  38  39  40  41 0
 6-311+G(2d,p)
 ****
 1  2  3  4  5  16  17  18  19  20  21  22  23  24  25 0
 3-21G
 ****
 27  28  30  31  32  35  37  42  43  44  45  46  47 0
 3-21G
 ****
 48  49 0
 3-21G
 ****


