%nproc=1
%NoSave
%Mem=1900MB
#P OB98/GEN NMR

erre ene a

0 1
  C      160.836     205.199    -300.602
  O      160.763     203.988    -301.336
  H      161.297     205.976    -301.218
  H      159.820     205.509    -300.339
  H      161.410     205.056    -299.684
  P      162.152     203.262    -301.672
  C      161.479     203.089    -304.182
  O      161.883     202.401    -303.004
  C      161.398     202.121    -305.362
  O      162.749     201.756    -305.764
  C      160.642     200.829    -305.044
  O      159.870     200.452    -306.192
  C      161.747     199.814    -304.812
  O      161.322     198.483    -305.059
  C      162.820     200.316    -305.780
  N      166.684     197.199    -306.987
  C      165.531     197.498    -307.623
  N      164.558     198.346    -307.237
  C      164.889     198.953    -306.076
  C      166.024     198.749    -305.312
  C      166.953     197.814    -305.805
  N      168.110     197.475    -305.145
  N      165.985     199.532    -304.175
  C      164.846     200.190    -304.250
  N      164.149     199.874    -305.384
  O      162.246     202.153    -300.518
  O      163.355     204.143    -301.704
  H      160.664     198.232    -304.373
  H      162.562     202.569    -299.693
  H      165.368     196.978    -308.570
  H      164.480     200.901    -303.517
  H      162.658     199.970    -306.806
  H      162.093     199.878    -303.777
  H      159.983     200.924    -304.179
  H      160.948     202.651    -306.215
  H      162.206     203.877    -304.397
  H      168.690     196.748    -305.540
  H      168.294     197.876    -304.242
  H      160.498     203.546    -304.011
  P      158.519     201.289    -306.459
  C      157.001     199.444    -305.457
  O      157.297     200.259    -306.587
  O      158.713     201.837    -307.952
  O      158.313     202.410    -305.494
  H      158.533     202.793    -307.989
  H      156.169     198.810    -305.683
  H      156.759     200.067    -304.622
  H      157.853     198.843    -305.218

 6  7  8  9  10  11  12  13  14  15  25  28  32  33  34  35 0
 6-311+G(2d,p)
 ****
 36  39  40 0
 6-311+G(2d,p)
 ****
 1  2  3  4  5  16  17  18  19  20  21  22  23  24 0
 3-21G
 ****
 26  27  29  30  31  37  38  41  42  43  44  45  46  47 0
 3-21G
 ****
 48 0
 3-21G
 ****


