%nproc=1
%NoSave
%Mem=1900MB
#P OB98/GEN NMR

erre ene a

0 1
  C     -242.815     110.798     -66.330
  O     -243.743     111.485     -67.179
  P     -245.039     110.649     -67.638
  C     -246.238     110.433     -65.342
  O     -246.245     111.016     -66.640
  C     -247.367     110.983     -64.461
  O     -247.026     112.327     -64.038
  C     -248.737     111.059     -65.146
  O     -249.749     110.740     -64.179
  C     -248.877     112.534     -65.485
  O     -250.242     112.921     -65.643
  C     -248.172     113.159     -64.282
  N     -249.601     118.010     -64.082
  C     -250.257     116.878     -63.643
  N     -251.479     117.066     -63.090
  N     -249.764     115.671     -63.732
  C     -248.521     115.637     -64.276
  C     -247.763     116.692     -64.742
  C     -248.343     118.019     -64.674
  O     -247.835     119.051     -65.096
  N     -246.552     116.259     -65.225
  C     -246.579     114.952     -65.060
  N     -247.758     114.528     -64.496
  O     -244.657     109.144     -67.253
  O     -245.353     110.777     -69.092
  H     -250.611     112.378     -66.367
  H     -244.719     108.571     -68.040
  H     -250.037     118.914     -64.011
  H     -245.794     114.268     -65.351
  H     -248.807     113.132     -63.389
  H     -248.348     112.743     -66.422
  H     -251.890     117.971     -62.934
  H     -248.842     110.413     -66.024
  H     -251.955     116.252     -62.720
  H     -247.426     110.363     -63.558
  H     -245.277     110.634     -64.862
  H     -246.339     109.346     -65.447
  P     -250.414     109.284     -64.295
  C     -248.849     108.164     -62.543
  O     -250.159     108.574     -62.879
  O     -249.429     108.506     -65.292
  O     -251.826     109.292     -64.782
  H     -249.914     107.803     -65.765
  H     -248.100     108.565     -63.232
  H     -248.802     107.071     -62.566
  H     -248.618     108.512     -61.530
  H     -242.000     111.449     -66.092
  H     -242.443     109.931     -66.836
  H     -243.309     110.501     -65.429

 3  4  5  6  7  8  9  10  11  12  23  26  30  31  33  0
 6-311+G(2d,p)
 ****
 35  36  37  38 0
 6-311+G(2d,p)
 ****
 1  2  13  14  15  16  17  18  19  20  21  22  24  25  27  28  29 0
 3-21G
 ****
 32  34  39  40  41  42  43  44  45  46  47  48  49 0
 3-21G
 ****


