%nproc=1
%NoSave
%Mem=1900MB
#P OB98/GEN NMR

erre ene a

0 1
  C      530.992    -218.665     117.878
  O      529.855    -218.176     118.564
  H      531.641    -219.173     118.596
  H      531.546    -217.840     117.422
  H      530.684    -219.379     117.110
  P      528.786    -217.360     117.691
  C      530.015    -215.110     117.956
  O      529.630    -216.146     117.061
  C      530.681    -213.964     117.192
  O      531.981    -214.412     116.729
  C      529.885    -213.503     115.971
  O      529.989    -212.085     115.852
  C      530.602    -214.162     114.806
  O      530.421    -213.460     113.582
  C      532.044    -214.197     115.310
  N      534.781    -215.408     111.177
  C      534.256    -214.239     111.604
  N      533.551    -214.001     112.729
  C      533.451    -215.117     113.469
  C      533.929    -216.379     113.168
  C      534.622    -216.510     111.950
  N      535.137    -217.701     111.495
  N      533.589    -217.280     114.158
  C      532.925    -216.567     115.054
  N      532.803    -215.257     114.672
  O      527.535    -216.967     118.403
  O      528.583    -218.330     116.435
  H      529.458    -213.356     113.421
  H      529.436    -218.679     116.112
  H      534.417    -213.383     110.949
  H      532.507    -216.953     115.976
  H      532.577    -213.257     115.117
  H      530.215    -215.183     114.669
  H      528.833    -213.793     116.020
  H      530.860    -213.137     117.887
  H      530.709    -215.500     118.710
  H      535.635    -217.699     110.619
  H      535.045    -218.529     112.065
  H      529.114    -214.755     118.463
  P      528.965    -211.171     116.681
  C      527.441    -210.376     114.751
  O      527.546    -211.177     115.927
  O      529.472    -209.829     117.088
  O      528.663    -212.081     117.969
  H      528.580    -211.499     118.754
  H      526.455    -210.465     114.346
  H      528.155    -210.709     114.028
  H      527.634    -209.353     114.998

 6  7  8  9  10  11  12  13  14  15  25  28  32  33  34  35 0
 6-311+G(2d,p)
 ****
 36  39  40 0
 6-311+G(2d,p)
 ****
 1  2  3  4  5  16  17  18  19  20  21  22  23  24 0
 3-21G
 ****
 26  27  29  30  31  37  38  41  42  43  44  45  46  47 0
 3-21G
 ****
 48 0
 3-21G
 ****


