%nproc=1
%NoSave
%Mem=1900MB
#P OB98/GEN NMR

erre ene a

0 1
  C     -754.463    -913.568    1402.522
  O     -754.570    -912.221    1402.932
  H     -755.084    -913.714    1401.642
  H     -754.802    -914.239    1403.312
  H     -753.425    -913.798    1402.259
  P     -753.804    -911.747    1404.262
  C     -755.926    -910.577    1405.181
  O     -754.571    -910.433    1404.797
  C     -756.672    -909.262    1404.979
  O     -755.853    -908.203    1405.536
  C     -756.931    -908.924    1403.502
  O     -758.300    -908.673    1403.200
  C     -755.905    -907.859    1403.197
  O     -756.254    -906.989    1402.137
  C     -755.732    -907.170    1404.550
  N     -754.420    -906.495    1404.692
  C     -754.208    -905.338    1403.932
  O     -755.029    -904.830    1403.175
  N     -752.976    -904.725    1404.077
  C     -751.983    -905.186    1404.889
  O     -750.890    -904.605    1404.984
  C     -752.241    -906.408    1405.647
  C     -753.433    -907.006    1405.510
  O     -752.326    -911.608    1404.113
  O     -754.176    -912.854    1405.350
  H     -756.370    -907.542    1401.324
  H     -753.431    -913.450    1405.489
  H     -752.847    -903.900    1403.549
  H     -751.444    -906.786    1406.281
  H     -753.671    -907.903    1406.052
  H     -756.498    -906.413    1404.709
  H     -754.958    -908.336    1402.897
  H     -756.715    -909.825    1402.869
  H     -757.606    -909.290    1405.537
  H     -755.943    -910.876    1406.232
  H     -756.387    -911.375    1404.574
  P     -759.082    -909.180    1401.911
  C     -759.236    -906.740    1400.873
  O     -759.880    -907.950    1401.274
  O     -759.820    -910.455    1402.054
  O     -757.900    -909.412    1400.815
  H     -758.203    -910.157    1400.251
  H     -759.964    -906.063    1400.477
  H     -758.505    -906.957    1400.123
  H     -758.757    -906.294    1401.719

 6  7  8  9  10  11  12  13  14  15  16  26  31  32  33  34  35 0
 6-311+G(2d,p)
 ****
 36  37 0
 6-311+G(2d,p)
 ****
 1  2  3  4  5  17  18  19  20  21  22  23  24  25 0
 3-21G
 ****
 27  28  29  30  38  39  40  41  42  43  44  45 0
 3-21G
 ****


