%nproc=1
%NoSave
%Mem=1900MB
#P OB98/GEN NMR

erre ene a

0 1
  C      -41.747     121.205      72.410
  O      -41.918     122.017      73.556
  H      -40.878     120.560      72.563
  H      -41.572     121.832      71.530
  H      -42.632     120.577      72.251
  P      -43.241     122.919      73.616
  C      -44.543     124.368      71.855
  O      -43.335     123.715      72.217
  C      -44.334     125.167      70.568
  O      -43.753     124.356      69.531
  C      -45.621     125.685      69.948
  O      -46.204     126.735      70.688
  C      -45.115     126.106      68.574
  O      -44.450     127.376      68.635
  C      -44.107     124.971      68.259
  N      -44.629     123.996      67.316
  C      -44.006     123.975      66.062
  O      -43.072     124.745      65.816
  N      -44.482     123.109      65.104
  C      -45.469     122.320      65.385
  N      -45.901     121.489      64.398
  C      -46.135     122.290      66.704
  C      -45.674     123.150      67.609
  O      -42.831     124.069      74.651
  O      -44.497     122.188      73.962
  H      -43.996     127.487      67.777
  H      -42.004     124.525      74.418
  H      -46.950     121.602      66.890
  H      -46.106     123.193      68.599
  H      -43.176     125.390      67.849
  H      -45.925     126.203      67.851
  H      -46.330     124.859      69.807
  H      -43.637     125.990      70.792
  H      -45.431     121.552      63.496
  H      -44.899     125.017      72.660
  H      -46.679     120.856      64.485
  H      -45.302     123.594      71.695
  P      -47.736     127.152      70.444
  C      -49.129     127.257      68.284
  O      -47.861     127.506      68.884
  O      -48.259     128.200      71.366
  O      -48.519     125.752      70.538
  H      -48.236     125.087      69.888
  H      -49.094     127.529      67.250
  H      -49.879     127.838      68.780
  H      -49.367     126.217      68.372

 6  7  8  9  10  11  12  13  14  15  16  26  30  31  32  33  35 0
 6-311+G(2d,p)
 ****
 37  38 0
 6-311+G(2d,p)
 ****
 1  2  3  4  5  17  18  19  20  21  22  23  24  25 0
 3-21G
 ****
 27  28  29  34  36  39  40  41  42  43  44  45  46 0
 3-21G
 ****


