%nproc=1
%NoSave
%Mem=1900MB
#P OB98/GEN NMR

erre ene a

0 1
  C      -14.848    -170.168    -151.645
  O      -14.307    -171.042    -150.668
  P      -13.876    -170.503    -149.220
  C      -13.096    -172.932    -148.910
  O      -12.794    -171.560    -148.688
  C      -12.006    -173.812    -148.306
  O      -11.860    -173.463    -146.908
  C      -12.278    -175.316    -148.319
  O      -11.935    -175.969    -149.531
  C      -11.338    -175.784    -147.214
  O       -9.992    -175.852    -147.718
  C      -11.462    -174.656    -146.185
  N      -12.426    -177.411    -141.982
  C      -11.331    -177.315    -142.771
  N      -11.161    -176.572    -143.885
  C      -12.258    -175.842    -144.139
  C      -13.443    -175.826    -143.424
  C      -13.507    -176.660    -142.294
  N      -14.617    -176.737    -141.481
  N      -14.351    -174.960    -144.004
  C      -13.713    -174.454    -145.037
  N      -12.444    -174.947    -145.156
  O      -15.015    -170.221    -148.302
  O      -12.992    -169.208    -149.529
  H       -9.426    -176.143    -146.978
  H      -12.905    -168.663    -148.722
  H      -10.480    -177.921    -142.471
  H      -14.131    -173.733    -145.727
  H      -10.512    -174.432    -145.689
  H      -11.589    -176.778    -146.835
  H      -13.313    -175.536    -148.028
  H      -11.059    -173.585    -148.811
  H      -13.138    -173.103    -149.994
  H      -14.525    -177.261    -140.623
  H      -15.357    -176.063    -141.617
  H      -14.075    -173.167    -148.487
  P      -12.579    -177.420    -149.790
  C      -12.195    -176.879    -152.322
  O      -12.143    -177.827    -151.280
  O      -14.037    -177.512    -149.501
  O      -11.681    -178.374    -148.870
  H      -10.756    -178.470    -149.149
  H      -11.711    -177.300    -153.206
  H      -11.670    -175.962    -152.042
  H      -13.235    -176.647    -152.569
  H      -15.068    -170.720    -152.535
  H      -14.138    -169.400    -151.869
  H      -15.746    -169.725    -151.269

 3  4  5  6  7  8  9  10  11  12  22  25  29  30  31  32 0
 6-311+G(2d,p)
 ****
 33  36  37 0
 6-311+G(2d,p)
 ****
 1  2  13  14  15  16  17  18  19  20  21  23  24  26 0
 3-21G
 ****
 27  28  34  35  38  39  40  41  42  43  44  45  46  47  48 0
 3-21G
 ****


