%nproc=1
%NoSave
%Mem=1900MB
#P OB98/GEN NMR

erre ene a

0 1
  C      142.455    -182.505     297.029
  O      143.274    -182.409     295.886
  H      141.661    -183.230     296.825
  H      141.994    -181.543     297.258
  H      143.036    -182.857     297.886
  P      144.414    -181.276     295.838
  C      143.441    -180.007     293.829
  O      143.674    -179.975     295.232
  C      143.263    -178.601     293.256
  O      143.158    -178.670     291.809
  C      142.017    -177.870     293.779
  O      142.367    -176.535     294.154
  C      141.084    -177.847     292.570
  O      140.137    -176.784     292.641
  C      142.096    -177.777     291.420
  N      141.520    -178.156     290.132
  C      140.756    -177.181     289.481
  O      140.568    -176.083     290.014
  N      140.194    -177.480     288.266
  C      140.334    -178.671     287.768
  N      139.743    -178.910     286.569
  C      141.092    -179.741     288.442
  C      141.658    -179.418     289.606
  O      145.663    -181.676     295.124
  O      144.648    -180.874     297.366
  H      140.617    -175.934     292.564
  H      145.529    -180.431     297.459
  H      141.176    -180.723     287.991
  H      142.243    -180.144     290.166
  H      142.511    -176.768     291.325
  H      140.528    -178.795     292.518
  H      141.552    -178.363     294.625
  H      144.178    -178.024     293.467
  H      139.232    -178.146     286.135
  H      142.549    -180.611     293.633
  H      139.782    -179.796     286.087
  H      144.308    -180.481     293.347
  P      142.400    -176.239     295.735
  C      139.828    -176.001     295.937
  O      140.989    -176.702     296.354
  O      142.348    -174.641     295.807
  O      143.610    -176.786     296.424
  H      143.242    -174.279     295.968
  H      138.969    -176.412     296.425
  H      139.716    -176.095     294.877
  H      139.924    -174.967     296.195

 6  7  8  9  10  11  12  13  14  15  16  26  30  31  32  33  35 0
 6-311+G(2d,p)
 ****
 37  38 0
 6-311+G(2d,p)
 ****
 1  2  3  4  5  17  18  19  20  21  22  23  24  25 0
 3-21G
 ****
 27  28  29  34  36  39  40  41  42  43  44  45  46 0
 3-21G
 ****


