%nproc=1
%NoSave
%Mem=1900MB
#P OB98/GEN NMR

erre ene a

0 1
  C      271.151     270.018    -244.307
  O      272.339     269.763    -245.031
  H      270.346     269.405    -244.734
  H      270.864     271.071    -244.383
  H      271.279     269.741    -243.258
  P      273.600     270.723    -244.774
  C      274.712     269.057    -243.136
  O      274.127     270.352    -243.299
  C      276.180     269.159    -242.730
  O      276.318     270.030    -241.586
  C      276.794     267.837    -242.304
  O      276.960     266.912    -243.356
  C      278.004     268.283    -241.495
  O      279.156     268.532    -242.284
  C      277.502     269.614    -240.877
  N      277.258     269.491    -239.441
  C      278.390     269.437    -238.635
  O      279.538     269.464    -239.079
  N      278.168     269.311    -237.291
  C      276.940     269.178    -236.698
  O      276.809     269.020    -235.487
  C      275.782     269.220    -237.606
  C      275.992     269.365    -238.916
  O      273.352     272.190    -244.973
  O      274.736     270.128    -245.727
  H      279.855     268.868    -241.683
  H      275.464     270.780    -245.858
  H      278.973     269.278    -236.695
  H      274.793     269.109    -237.162
  H      275.146     269.398    -239.603
  H      278.245     270.409    -241.023
  H      278.286     267.539    -240.748
  H      276.108     267.366    -241.590
  H      276.735     269.607    -243.568
  H      274.635     268.538    -244.102
  H      274.138     268.492    -242.389
  P      276.449     265.397    -243.287
  C      274.228     265.643    -244.601
  O      274.844     265.412    -243.352
  O      277.129     264.501    -242.305
  O      276.835     264.867    -244.762
  H      277.082     263.925    -244.689
  H      273.165     265.623    -244.483
  H      274.525     264.881    -245.291
  H      274.528     266.600    -244.975

 6  7  8  9  10  11  12  13  14  15  16  26  31  32  33  34  35 0
 6-311+G(2d,p)
 ****
 36  37 0
 6-311+G(2d,p)
 ****
 1  2  3  4  5  17  18  19  20  21  22  23  24  25 0
 3-21G
 ****
 27  28  29  30  38  39  40  41  42  43  44  45 0
 3-21G
 ****


