%nproc=1
%NoSave
%Mem=1900MB
#P OB98/GEN NMR

erre ene a

0 1
  C     -113.175    -899.267    -270.016
  O     -112.702    -898.007    -269.502
  P     -111.419    -897.347    -270.205
  C     -112.477    -895.247    -271.320
  O     -111.917    -896.547    -271.500
  C     -111.830    -894.237    -272.284
  O     -112.072    -894.587    -273.661
  C     -112.329    -892.817    -272.098
  O     -111.665    -892.147    -271.026
  C     -111.918    -892.197    -273.421
  O     -110.515    -891.857    -273.402
  C     -112.167    -893.347    -274.418
  N     -114.628    -893.757    -278.823
  C     -113.283    -893.907    -278.535
  N     -112.483    -894.217    -279.573
  N     -112.769    -893.757    -277.336
  C     -113.698    -893.457    -276.395
  C     -115.070    -893.297    -276.563
  C     -115.615    -893.437    -277.879
  O     -116.781    -893.307    -278.210
  N     -115.668    -892.987    -275.366
  C     -114.683    -893.017    -274.487
  N     -113.480    -893.277    -275.055
  O     -110.662    -898.607    -270.845
  O     -110.529    -896.597    -269.272
  H     -110.407    -891.167    -272.733
  H     -109.715    -898.437    -270.903
  H     -114.969    -893.877    -279.766
  H     -114.811    -892.827    -273.412
  H     -111.415    -893.387    -275.219
  H     -112.462    -891.267    -273.646
  H     -112.801    -894.397    -280.505
  H     -113.418    -892.787    -271.994
  H     -111.492    -894.367    -279.382
  H     -110.738    -894.267    -272.104
  H     -112.344    -894.917    -270.286
  H     -113.565    -895.297    -271.482
  P     -112.560    -891.377    -269.950
  C     -113.289    -893.397    -268.494
  O     -113.655    -892.417    -269.456
  O     -113.382    -890.337    -270.855
  O     -111.797    -890.677    -268.886
  H     -113.585    -889.527    -270.346
  H     -114.201    -893.917    -268.147
  H     -112.810    -892.927    -267.631
  H     -112.616    -894.127    -268.951
  H     -114.029    -899.583    -269.454
  H     -112.401    -900.000    -269.931
  H     -113.447    -899.153    -271.045

 3  4  5  6  7  8  9  10  11  12  23  26  30  31 0
 6-311+G(2d,p)
 ****
 33  35  36  37  38 0
 6-311+G(2d,p)
 ****
 1  2  13  14  15  16  17  18  19  20  21  22  24  25 0
 3-21G
 ****
 27  28  29  32  34  39  40  41  42  43  44  45  46  47  48  49 0
 3-21G
 ****


