%nproc=1
%NoSave
%Mem=1900MB
#P OB98/GEN NMR

erre ene a

0 1
  C     -346.848    -767.057    -413.117
  O     -345.455    -767.107    -413.404
  P     -344.910    -768.327    -414.285
  C     -343.302    -766.847    -415.754
  O     -343.462    -767.900    -414.788
  C     -341.810    -766.624    -416.044
  O     -341.232    -765.791    -415.016
  C     -340.979    -767.875    -416.084
  O     -341.136    -768.591    -417.290
  C     -339.564    -767.297    -415.873
  O     -339.055    -766.774    -417.111
  C     -339.830    -766.156    -414.887
  N     -339.519    -766.494    -413.491
  C     -338.190    -766.779    -413.210
  O     -337.297    -766.732    -414.062
  N     -337.897    -767.143    -411.917
  C     -338.829    -767.292    -410.903
  O     -338.519    -767.647    -409.770
  C     -340.218    -767.034    -411.262
  C     -340.499    -766.661    -412.530
  O     -345.855    -768.205    -415.562
  O     -344.985    -769.633    -413.553
  H     -346.154    -767.295    -415.709
  H     -338.866    -767.546    -417.691
  H     -336.936    -767.306    -411.676
  H     -340.968    -767.155    -410.497
  H     -341.530    -766.458    -412.813
  H     -339.265    -765.274    -415.155
  H     -338.848    -768.052    -415.524
  H     -341.215    -768.530    -415.240
  H     -341.727    -766.058    -416.991
  H     -343.736    -765.938    -415.367
  H     -343.834    -767.138    -416.671
  P     -340.886    -770.195    -417.228
  C     -343.086    -770.988    -418.411
  O     -341.685    -770.821    -418.472
  O     -341.743    -770.602    -415.939
  O     -339.430    -770.569    -417.157
  H     -342.606    -770.160    -415.913
  H     -343.480    -771.090    -419.419
  H     -343.563    -770.110    -417.928
  H     -343.317    -771.895    -417.845
  H     -347.059    -766.192    -412.524
  H     -347.133    -767.937    -412.578
  H     -347.399    -767.005    -414.033

 3  4  5  6  7  8  9  10  11  12  13  24  28  29  30  31  32 0
 6-311+G(2d,p)
 ****
 33  34 0
 6-311+G(2d,p)
 ****
 1  2  14  15  16  17  18  19  20  21  22  23  25  26  27 0
 3-21G
 ****
 35  36  37  38  39  40  41  42  43  44  45 0
 3-21G
 ****


