%nproc=1
%NoSave
%Mem=1900MB
#P OB98/GEN NMR

erre ene a

0 1
  C       43.908      13.120     -81.700
  O       44.514      14.000     -82.625
  P       45.719      13.516     -83.559
  C       47.425      14.399     -81.863
  O       47.005      13.281     -82.631
  C       48.708      14.096     -81.092
  O       48.444      13.067     -80.102
  C       49.870      13.615     -81.972
  O       51.070      14.187     -81.441
  C       49.857      12.113     -81.764
  O       51.110      11.513     -82.064
  C       49.428      12.032     -80.295
  N       48.901      10.724     -79.940
  C       49.756       9.863     -79.250
  O       50.938      10.168     -79.082
  N       49.252       8.675     -78.783
  C       48.062       8.300     -79.140
  N       47.576       7.150     -78.601
  C       47.226       9.076     -80.078
  C       47.680      10.284     -80.399
  O       45.970      14.367     -84.760
  O       45.310      12.028     -83.991
  H       45.345      11.957     -84.964
  H       51.008      10.538     -82.041
  H       46.297       8.666     -80.445
  H       47.126      10.941     -81.059
  H       50.273      12.263     -79.633
  H       49.098      11.657     -82.410
  H       49.759      13.911     -83.019
  H       49.001      15.002     -80.547
  H       48.162       6.667     -77.931
  H       46.631      14.640     -81.152
  H       46.578       6.950     -78.564
  H       47.562      15.269     -82.515
  P       52.312      14.410     -82.435
  C       53.780      12.426     -81.637
  O       53.010      12.989     -82.678
  O       53.369      15.141     -81.470
  O       52.058      15.257     -83.640
  H       53.978      15.674     -82.013
  H       54.231      11.498     -81.999
  H       53.146      12.192     -80.778
  H       54.578      13.109     -81.335
  H       43.128      13.634     -81.177
  H       44.641      12.778     -81.000
  H       43.495      12.282     -82.222

 3  4  5  6  7  8  9  10  11  12  13  24  27  28  29  30  32 0
 6-311+G(2d,p)
 ****
 34  35 0
 6-311+G(2d,p)
 ****
 1  2  14  15  16  17  18  19  20  21  22  23  25  26 0
 3-21G
 ****
 31  33  36  37  38  39  40  41  42  43  44  45  46 0
 3-21G
 ****


