%nproc=1
%NoSave
%Mem=1900MB
#P OB98/GEN NMR

erre ene a

0 1
  C      305.838       4.514      47.444
  O      305.690       3.194      47.953
  P      306.708       2.701      49.091
  C      309.203       1.986      49.136
  O      308.171       2.659      48.425
  C      310.585       2.493      48.718
  O      310.640       3.933      48.925
  C      311.752       1.875      49.495
  O      312.866       1.795      48.593
  C      312.048       2.920      50.557
  O      313.370       2.795      51.083
  C      311.792       4.201      49.760
  N      313.853       8.290      52.044
  C      314.381       7.362      51.222
  N      313.769       6.298      50.652
  C      312.473       6.249      51.012
  C      311.804       7.104      51.873
  C      312.549       8.175      52.400
  N      312.008       9.131      53.232
  N      310.488       6.713      52.022
  C      310.364       5.640      51.265
  N      311.530       5.337      50.618
  O      306.327       1.154      49.256
  O      306.611       3.427      50.390
  H      313.446       1.921      51.510
  H      305.910       1.004      50.130
  H      315.433       7.485      50.985
  H      309.464       5.053      51.157
  H      312.633       4.456      49.105
  H      311.341       2.820      51.386
  H      311.534       0.891      49.921
  H      310.703       2.323      47.644
  H      309.142       0.917      48.917
  H      312.568       9.937      53.461
  H      311.000       9.162      53.352
  H      309.057       2.129      50.214
  P      313.969       0.672      48.906
  C      316.323       0.837      49.988
  O      314.988       1.304      49.970
  O      314.823       0.612      47.551
  O      313.400      -0.664      49.260
  H      315.208      -0.282      47.441
  H      316.981       1.662      50.270
  H      316.633       0.443      49.014
  H      316.412       0.040      50.738
  H      305.092       4.694      46.698
  H      306.810       4.622      47.010
  H      305.723       5.219      48.241

 3  4  5  6  7  8  9  10  11  12  22  25  29  30  31  32 0
 6-311+G(2d,p)
 ****
 33  36  37 0
 6-311+G(2d,p)
 ****
 1  2  13  14  15  16  17  18  19  20  21  23  24  26 0
 3-21G
 ****
 27  28  34  35  38  39  40  41  42  43  44  45  46  47  48 0
 3-21G
 ****


