%nproc=1
%NoSave
%Mem=1900MB
#P OB98/GEN NMR

erre ene a

0 1
  C     -155.441     284.074     159.859
  O     -155.427     282.669     159.694
  H     -154.968     284.535     158.988
  H     -154.879     284.355     160.755
  H     -156.471     284.434     159.935
  P     -156.027     281.792     160.897
  C     -154.270     282.577     162.644
  O     -154.807     281.494     161.898
  C     -152.909     282.180     163.213
  O     -152.352     283.283     163.963
  C     -152.960     281.009     164.182
  O     -153.064     279.762     163.519
  C     -151.632     281.184     164.910
  O     -150.548     280.587     164.177
  C     -151.485     282.723     164.970
  N     -151.771     283.249     166.299
  C     -150.959     282.777     167.330
  O     -150.052     281.964     167.148
  N     -151.249     283.243     168.583
  C     -152.276     284.087     168.903
  O     -152.527     284.407     170.064
  C     -153.095     284.565     167.780
  C     -152.818     284.124     166.547
  O     -156.310     280.374     160.205
  O     -157.246     282.359     161.548
  H     -157.263     280.278     160.027
  H     -149.752     280.700     164.730
  H     -150.677     282.901     169.340
  H     -153.912     285.240     167.999
  H     -153.420     284.449     165.704
  H     -150.458     283.018     164.706
  H     -151.646     280.708     165.894
  H     -153.776     281.145     164.907
  H     -152.234     281.958     162.374
  H     -154.946     282.822     163.475
  H     -154.181     283.453     161.991
  P     -153.914     278.596     164.219
  C     -151.856     277.274     165.183
  O     -152.959     277.306     164.291
  O     -154.956     278.238     163.059
  O     -154.530     278.992     165.519
  H     -154.571     278.307     162.163
  H     -151.345     276.339     165.085
  H     -152.206     277.386     166.188
  H     -151.184     278.073     164.949

 6  7  8  9  10  11  12  13  14  15  16  27  31  32  33  34  35 0
 6-311+G(2d,p)
 ****
 36  37 0
 6-311+G(2d,p)
 ****
 1  2  3  4  5  17  18  19  20  21  22  23  24  25 0
 3-21G
 ****
 26  28  29  30  38  39  40  41  42  43  44  45 0
 3-21G
 ****


