%nproc=1
%NoSave
%Mem=1900MB
#P OB98/GEN NMR

erre ene a

0 1
  C       44.765    -888.480     818.791
  O       43.461    -888.800     819.257
  P       43.190    -890.300     819.801
  C       42.812    -891.280     817.466
  O       43.586    -891.330     818.662
  C       43.474    -892.130     816.365
  O       43.980    -893.380     816.875
  C       42.486    -892.510     815.262
  O       42.218    -891.410     814.416
  C       43.248    -893.650     814.592
  O       44.257    -893.170     813.676
  C       43.961    -894.340     815.810
  N       43.327    -895.580     816.219
  C       43.670    -896.710     815.492
  O       44.446    -896.620     814.527
  N       43.115    -897.910     815.850
  C       42.280    -897.990     816.831
  N       41.776    -899.200     817.150
  C       41.886    -896.800     817.614
  C       42.430    -895.650     817.281
  O       41.842    -890.510     820.455
  O       44.371    -890.480     820.902
  H       43.757    -892.710     812.987
  H       44.064    -891.080     821.604
  H       41.178    -896.910     818.455
  H       42.166    -894.720     817.784
  H       45.006    -894.570     815.568
  H       42.594    -894.310     814.034
  H       41.570    -892.890     815.679
  H       44.292    -891.540     815.947
  H       42.041    -900.000     816.592
  H       42.724    -890.240     817.152
  H       41.158    -899.360     817.932
  H       41.797    -891.640     817.682
  P       40.803    -890.690     814.569
  C       39.621    -892.100     812.723
  O       39.687    -891.710     814.105
  O       40.832    -889.580     813.413
  O       40.562    -890.060     815.919
  H       40.332    -888.810     813.688
  H       39.037    -893.030     812.652
  H       40.654    -892.320     812.350
  H       39.184    -891.330     812.136
  H       44.788    -887.461     818.467
  H       45.018    -889.121     817.972
  H       45.471    -888.618     819.583

 3  4  5  6  7  8  9  10  11  12  13  23  27  28  29  30  32 0
 6-311+G(2d,p)
 ****
 34  35 0
 6-311+G(2d,p)
 ****
 1  2  14  15  16  17  18  19  20  21  22  24  25  26 0
 3-21G
 ****
 31  33  36  37  38  39  40  41  42  43  44  45  46 0
 3-21G
 ****


