%nproc=1
%NoSave
%Mem=1900MB
#P OB98/GEN NMR

erre ene a

0 1
  C     -134.782     240.076     194.919
  O     -135.837     239.587     194.090
  P     -136.743     240.641     193.291
  C     -138.876     239.235     193.608
  O     -138.000     239.858     192.677
  C     -139.731     238.170     192.920
  O     -138.999     236.945     192.723
  C     -140.961     237.779     193.721
  O     -141.953     238.789     193.655
  C     -141.337     236.458     193.066
  O     -142.091     236.675     191.862
  C     -139.953     235.862     192.722
  N     -139.549     234.792     193.623
  C     -139.756     233.489     193.160
  O     -140.290     233.296     192.068
  N     -139.366     232.440     193.956
  C     -138.827     232.673     195.112
  N     -138.459     231.596     195.856
  C     -138.604     234.032     195.642
  C     -138.992     235.034     194.856
  O     -136.012     241.525     192.335
  O     -137.412     241.498     194.473
  H     -142.119     235.813     191.403
  H     -137.578     242.405     194.148
  H     -138.145     234.175     196.610
  H     -138.866     236.065     195.169
  H     -139.959     235.456     191.703
  H     -141.952     235.837     193.725
  H     -140.682     237.604     194.768
  H     -140.034     238.558     191.938
  H     -138.633     230.674     195.475
  H     -139.521     239.991     194.064
  H     -137.986     231.674     196.745
  H     -138.280     238.800     194.418
  P     -142.704     239.186     195.014
  C     -144.909     239.094     193.659
  O     -144.139     239.778     194.625
  O     -141.893     240.478     195.509
  O     -142.708     238.119     196.061
  H     -141.867     240.494     196.482
  H     -145.950     239.427     193.740
  H     -144.876     238.011     193.813
  H     -144.544     239.332     192.657
  H     -134.278     239.251     195.378
  H     -135.190     240.711     195.677
  H     -134.088     240.631     194.323

 3  4  5  6  7  8  9  10  11  12  13  23  27  28  29  30  32 0
 6-311+G(2d,p)
 ****
 34  35 0
 6-311+G(2d,p)
 ****
 1  2  14  15  16  17  18  19  20  21  22  24  25  26 0
 3-21G
 ****
 31  33  36  37  38  39  40  41  42  43  44  45  46 0
 3-21G
 ****


