%nproc=1
%NoSave
%Mem=1900MB
#P OB98/GEN NMR

erre ene a

0 1
  C      789.599    -321.290     286.366
  O      790.064    -321.152     287.693
  H      790.131    -320.576     285.732
  H      788.531    -321.073     286.328
  H      789.793    -322.300     285.988
  P      789.674    -322.265     288.776
  C      789.919    -324.824     288.543
  O      790.564    -323.558     288.434
  C      790.936    -325.969     288.422
  O      791.694    -325.788     287.190
  C      791.944    -326.029     289.577
  O      792.310    -327.408     289.758
  C      793.110    -325.247     289.009
  O      794.311    -325.502     289.719
  C      793.091    -325.712     287.552
  N      793.845    -324.825     286.667
  C      795.007    -325.342     286.112
  O      795.433    -326.468     286.367
  N      795.703    -324.499     285.298
  C      795.390    -323.196     285.027
  O      796.078    -322.476     284.311
  C      794.168    -322.683     285.670
  C      793.458    -323.515     286.450
  O      788.214    -322.535     288.932
  O      790.334    -321.741     290.139
  H      795.068    -325.071     289.272
  H      789.798    -322.038     290.903
  H      796.559    -324.857     284.876
  H      793.891    -321.659     285.491
  H      792.549    -323.170     286.936
  H      793.511    -326.715     287.451
  H      792.925    -324.169     289.071
  H      791.566    -325.610     290.511
  H      790.385    -326.912     288.325
  H      789.179    -324.896     287.749
  H      789.402    -324.886     289.516
  P      792.719    -328.003     291.192
  C      791.921    -327.851     293.642
  O      791.667    -327.477     292.289
  O      794.147    -327.776     291.557
  O      792.401    -329.566     291.090
  H      792.990    -330.062     291.688
  H      791.159    -327.445     294.273
  H      792.874    -327.471     293.944
  H      791.920    -328.918     293.723

 6  7  8  9  10  11  12  13  14  15  16  26  31  32  33  34  35 0
 6-311+G(2d,p)
 ****
 36  37 0
 6-311+G(2d,p)
 ****
 1  2  3  4  5  17  18  19  20  21  22  23  24  25 0
 3-21G
 ****
 27  28  29  30  38  39  40  41  42  43  44  45 0
 3-21G
 ****


