%nproc=1
%NoSave
%Mem=1900MB
#P OB98/GEN NMR

erre ene a

0 1
  C       82.984     -63.853    -181.039
  O       82.662     -62.464    -180.950
  P       83.330     -61.657    -179.734
  C       85.226     -60.222    -180.772
  O       83.884     -60.266    -180.309
  C       85.694     -58.774    -180.936
  O       87.129     -58.662    -180.971
  C       85.193     -58.120    -182.216
  O       83.850     -57.700    -182.053
  C       86.169     -56.961    -182.374
  O       85.763     -55.823    -181.588
  C       87.481     -57.548    -181.831
  N       92.040     -56.753    -183.897
  C       91.345     -56.002    -182.969
  N       91.964     -54.895    -182.507
  N       90.153     -56.311    -182.532
  C       89.656     -57.445    -183.079
  C       90.259     -58.287    -183.984
  C       91.578     -57.932    -184.463
  O       92.242     -58.576    -185.266
  N       89.469     -59.375    -184.260
  C       88.343     -59.120    -183.619
  N       88.428     -57.996    -182.836
  O       84.652     -62.500    -179.415
  O       82.445     -61.547    -178.537
  H       84.894     -55.513    -181.902
  H       84.555     -62.955    -178.558
  H       92.952     -56.463    -184.206
  H       87.453     -59.728    -183.666
  H       88.018     -56.821    -181.209
  H       86.224     -56.616    -183.410
  H       92.884     -54.599    -182.799
  H       85.293     -58.814    -183.059
  H       91.476     -54.335    -181.820
  H       85.332     -58.211    -180.066
  H       85.312     -60.747    -181.724
  H       85.862     -60.758    -180.059
  P       82.783     -58.159    -183.157
  C       82.084     -60.645    -182.902
  O       81.878     -59.304    -182.502
  O       83.681     -58.941    -184.227
  O       82.034     -57.038    -183.799
  H       83.421     -58.675    -185.129
  H       81.825     -61.304    -182.071
  H       83.123     -60.827    -183.190
  H       81.431     -60.871    -183.750
  H       82.484     -64.282    -181.882
  H       82.667     -64.350    -180.146
  H       84.042     -63.967    -181.155

 3  4  5  6  7  8  9  10  11  12  23  26  30  31 0
 6-311+G(2d,p)
 ****
 33  35  36  37  38 0
 6-311+G(2d,p)
 ****
 1  2  13  14  15  16  17  18  19  20  21  22  24  25 0
 3-21G
 ****
 27  28  29  32  34  39  40  41  42  43  44  45  46  47  48  49 0
 3-21G
 ****


