%nproc=1
%NoSave
%Mem=1900MB
#P OB98/GEN NMR

erre ene a

0 1
  C     -225.801     738.988     311.995
  O     -226.398     740.256     311.855
  H     -226.359     738.417     312.738
  H     -224.769     739.105     312.342
  H     -225.805     738.435     311.050
  P     -226.087     741.118     310.542
  C     -223.558     741.575     310.809
  O     -224.877     742.116     310.873
  C     -222.651     742.401     309.901
  O     -223.029     742.203     308.522
  C     -222.760     743.902     310.172
  O     -221.898     744.380     311.198
  C     -222.376     744.499     308.818
  O     -220.954     744.683     308.712
  C     -222.858     743.445     307.820
  N     -225.084     745.705     303.812
  C     -223.754     745.713     304.181
  N     -222.925     746.447     303.405
  N     -223.289     745.075     305.225
  C     -224.257     744.468     305.959
  C     -225.606     744.411     305.703
  C     -226.094     745.060     304.506
  O     -227.264     745.069     304.128
  N     -226.279     743.746     306.699
  C     -225.347     743.479     307.591
  N     -224.092     743.826     307.151
  O     -227.341     742.115     310.446
  O     -225.942     740.330     309.277
  H     -220.526     743.832     308.922
  H     -227.527     742.316     309.512
  H     -225.374     746.194     302.981
  H     -225.516     742.988     308.547
  H     -222.115     743.265     307.032
  H     -222.841     745.489     308.686
  H     -223.241     747.023     302.643
  H     -223.794     744.188     310.395
  H     -221.981     746.636     303.743
  H     -221.617     742.046     310.001
  H     -223.662     740.560     310.415
  H     -223.130     741.494     311.814
  P     -222.483     744.837     312.617
  C     -223.362     747.168     311.780
  O     -222.524     746.429     312.648
  O     -221.291     744.477     313.622
  O     -223.772     744.194     313.016
  H     -221.464     743.628     314.070
  H     -223.235     748.214     311.966
  H     -224.382     746.896     311.953
  H     -223.102     746.953     310.765

 6  7  8  9  10  11  12  13  14  15  26  29  33  34 0
 6-311+G(2d,p)
 ****
 36  38  39  40  41 0
 6-311+G(2d,p)
 ****
 1  2  3  4  5  16  17  18  19  20  21  22  23  24  25 0
 3-21G
 ****
 27  28  30  31  32  35  37  42  43  44  45  46  47 0
 3-21G
 ****
 48  49 0
 3-21G
 ****


