%nproc=1
%NoSave
%Mem=1900MB
#P OB98/GEN NMR

erre ene a

0 1
  C     -892.910     171.712    -552.596
  O     -893.390     171.545    -551.273
  H     -893.180     172.723    -552.935
  H     -893.380     170.987    -553.265
  H     -891.830     171.609    -552.625
  P     -893.180     170.129    -550.558
  C     -892.810     170.609    -548.042
  O     -893.750     170.279    -549.059
  C     -893.470     170.551    -546.661
  O     -894.460     171.624    -546.609
  C     -894.190     169.221    -546.408
  O     -893.810     168.580    -545.183
  C     -895.680     169.571    -546.574
  O     -896.580     168.744    -545.873
  C     -895.720     171.050    -546.173
  N     -896.830     171.798    -546.761
  C     -898.070     171.699    -546.114
  O     -898.280     171.049    -545.069
  N     -899.110     172.376    -546.688
  C     -899.040     173.126    -547.830
  O     -899.990     173.729    -548.309
  C     -897.710     173.170    -548.494
  C     -896.690     172.512    -547.939
  O     -891.810     169.536    -550.653
  O     -894.270     169.181    -551.262
  H     -897.470     169.089    -546.015
  H     -893.830     168.602    -551.911
  H     -900.000     172.333    -546.228
  H     -897.630     173.737    -549.400
  H     -895.710     172.536    -548.380
  H     -895.780     171.163    -545.096
  H     -895.930     169.483    -547.651
  H     -893.930     168.487    -547.164
  H     -892.720     170.759    -545.900
  H     -892.440     171.616    -548.236
  H     -891.980     169.890    -548.082
  P     -892.590     167.579    -545.028
  C     -892.750     168.001    -542.448
  O     -892.550     167.073    -543.500
  O     -891.290     168.031    -545.634
  O     -893.080     166.260    -545.852
  H     -892.280     165.868    -546.234
  H     -892.690     167.493    -541.508
  H     -893.715     168.452    -542.549
  H     -891.996     168.759    -542.492

 6  7  8  9  10  11  12  13  14  15  16  26  31  32  33  34  35 0
 6-311+G(2d,p)
 ****
 36  37 0
 6-311+G(2d,p)
 ****
 1  2  3  4  5  17  18  19  20  21  22  23  24  25 0
 3-21G
 ****
 27  28  29  30  38  39  40  41  42  43  44  45 0
 3-21G
 ****


