%nproc=1
%NoSave
%Mem=1900MB
#P OB98/GEN NMR

erre ene a

0 1
  C      121.731     239.460      45.319
  O      121.537     239.765      46.682
  H      120.923     239.914      44.741
  H      121.698     238.377      45.178
  H      122.685     239.849      44.953
  P      122.776     239.629      47.684
  C      122.867     237.058      47.887
  O      122.580     238.286      48.544
  C      123.186     235.945      48.885
  O      124.397     236.268      49.602
  C      122.086     235.765      49.936
  O      121.038     234.894      49.545
  C      122.867     235.189      51.114
  O      122.944     233.756      51.039
  C      124.259     235.810      50.954
  N      123.802     237.590      55.725
  C      123.230     236.465      55.161
  N      122.409     235.754      55.963
  N      123.439     236.094      53.925
  C      124.202     236.959      53.219
  C      124.805     238.114      53.664
  C      124.630     238.477      55.054
  O      125.128     239.453      55.604
  N      125.472     238.757      52.649
  C      125.197     238.037      51.580
  N      124.498     236.894      51.889
  O      122.502     240.777      48.772
  O      124.129     239.803      47.065
  H      123.470     233.523      50.249
  H      123.350     241.117      49.108
  H      123.628     237.809      56.689
  H      125.516     238.271      50.571
  H      125.049     235.067      51.121
  H      122.376     235.428      52.060
  H      122.147     236.040      56.892
  H      121.678     236.733      50.238
  H      121.824     235.034      55.536
  H      123.376     235.013      48.339
  H      123.729     237.243      47.245
  H      122.032     236.767      47.243
  P      119.514     235.249      49.866
  C      119.879     234.700      52.407
  O      119.109     234.541      51.236
  O      118.709     234.414      48.765
  O      119.171     236.702      49.828
  H      118.458     234.985      48.015
  H      119.433     234.144      53.205
  H      119.916     235.736      52.671
  H      120.872     234.341      52.233

 6  7  8  9  10  11  12  13  14  15  26  29  33  34 0
 6-311+G(2d,p)
 ****
 36  38  39  40  41 0
 6-311+G(2d,p)
 ****
 1  2  3  4  5  16  17  18  19  20  21  22  23  24  25 0
 3-21G
 ****
 27  28  30  31  32  35  37  42  43  44  45  46  47 0
 3-21G
 ****
 48  49 0
 3-21G
 ****


