%nproc=1
%NoSave
%Mem=1900MB
#P OB98/GEN NMR

erre ene a

0 1
  C     -181.590     -79.836    -276.387
  O     -182.614     -79.280    -277.190
  H     -180.639     -79.371    -276.659
  H     -181.519     -80.913    -276.563
  H     -181.792     -79.644    -275.330
  P     -184.087     -79.883    -276.981
  C     -184.185     -78.289    -274.938
  O     -184.489     -79.576    -275.458
  C     -185.225     -77.874    -273.899
  O     -184.813     -76.670    -273.219
  C     -186.611     -77.604    -274.472
  O     -187.344     -78.809    -274.620
  C     -187.195     -76.687    -273.405
  O     -187.669     -77.448    -272.272
  C     -185.983     -75.831    -273.017
  N     -184.850     -70.924    -272.658
  C     -184.970     -71.884    -271.674
  N     -184.790     -71.474    -270.398
  N     -185.254     -73.138    -271.914
  C     -185.469     -73.395    -273.225
  C     -185.381     -72.533    -274.294
  C     -185.011     -71.159    -274.019
  O     -184.808     -70.281    -274.851
  N     -185.649     -73.174    -275.476
  C     -185.929     -74.413    -275.120
  N     -185.837     -74.596    -273.761
  O     -183.846     -81.466    -276.987
  O     -185.091     -79.488    -278.008
  H     -188.204     -76.870    -271.700
  H     -184.591     -81.896    -277.446
  H     -184.600     -69.982    -272.417
  H     -186.192     -75.212    -275.799
  H     -186.002     -75.554    -271.955
  H     -188.056     -76.130    -273.781
  H     -184.860     -70.502    -270.135
  H     -186.547     -77.057    -275.422
  H     -184.951     -72.164    -269.675
  H     -185.270     -78.669    -273.145
  H     -184.184     -77.566    -275.763
  H     -183.192     -78.310    -274.481
  P     -188.858     -78.716    -275.135
  C     -188.399     -79.071    -277.669
  O     -188.833     -78.179    -276.651
  O     -189.442     -77.477    -274.308
  O     -189.672     -79.946    -274.904
  H     -190.031     -77.801    -273.599
  H     -188.436     -78.576    -278.617
  H     -189.039     -79.928    -277.689
  H     -187.395     -79.380    -277.468

 6  7  8  9  10  11  12  13  14  15  26  29  33  34 0
 6-311+G(2d,p)
 ****
 36  38  39  40  41 0
 6-311+G(2d,p)
 ****
 1  2  3  4  5  16  17  18  19  20  21  22  23  24  25 0
 3-21G
 ****
 27  28  30  31  32  35  37  42  43  44  45  46  47 0
 3-21G
 ****
 48  49 0
 3-21G
 ****


