%nproc=1
%NoSave
%Mem=1900MB
#P OB98/GEN NMR

erre ene a

0 1
  C      288.276     174.397     178.062
  O      287.298     175.416     178.025
  H      287.796     173.460     178.350
  H      289.042     174.637     178.803
  H      288.739     174.265     177.081
  P      287.699     176.851     177.435
  C      286.883     176.312     175.049
  O      287.993     176.644     175.873
  C      287.012     177.008     173.698
  O      286.963     178.440     173.868
  C      288.324     176.723     172.976
  O      288.314     175.430     172.401
  C      288.351     177.869     171.975
  O      287.513     177.581     170.845
  C      287.764     179.027     172.818
  N      288.788     179.911     173.372
  C      288.970     181.129     172.726
  O      288.346     181.454     171.718
  N      289.914     181.959     173.270
  C      290.731     181.660     174.322
  O      291.600     182.420     174.739
  C      290.518     180.345     174.942
  C      289.573     179.545     174.449
  O      288.762     177.587     178.182
  O      286.315     177.657     177.436
  H      287.804     176.716     170.497
  H      286.281     178.252     178.207
  H      290.068     182.841     172.808
  H      291.153     180.071     175.775
  H      289.404     178.568     174.889
  H      287.085     179.633     172.206
  H      289.350     178.062     171.584
  H      289.169     176.838     173.663
  H      286.156     176.714     173.078
  H      285.965     176.647     175.546
  H      286.846     175.226     174.925
  P      289.319     174.298     172.916
  C      287.661     172.417     173.433
  O      288.528     173.397     173.986
  O      290.649     174.791     173.382
  O      289.474     173.317     171.662
  H      290.349     173.444     171.248
  H      287.185     171.875     174.223
  H      288.227     171.741     172.827
  H      286.917     172.897     172.832

 6  7  8  9  10  11  12  13  14  15  16  26  31  32  33  34  35 0
 6-311+G(2d,p)
 ****
 36  37 0
 6-311+G(2d,p)
 ****
 1  2  3  4  5  17  18  19  20  21  22  23  24  25 0
 3-21G
 ****
 27  28  29  30  38  39  40  41  42  43  44  45 0
 3-21G
 ****


