%nproc=1
%NoSave
%Mem=1900MB
#P OB98/GEN NMR

erre ene a

0 1
  C      108.622     521.523     119.322
  O      109.881     521.401     119.998
  P      109.880     520.713     121.447
  C      111.969     520.155     122.938
  O      111.295     521.090     122.103
  C      113.384     520.644     123.228
  O      114.174     520.685     122.011
  C      113.458     522.052     123.806
  O      113.055     522.073     125.173
  C      114.922     522.390     123.562
  O      115.749     521.800     124.583
  C      115.188     521.702     122.201
  N      115.220     522.639     121.088
  C      116.447     523.262     120.846
  O      117.447     523.060     121.539
  N      116.478     524.132     119.788
  C      115.420     524.465     118.990
  O      115.515     525.247     118.054
  C      114.143     523.819     119.324
  C      114.098     522.949     120.343
  O      110.023     519.163     121.055
  O      108.674     521.058     122.256
  H      110.582     519.021     120.273
  H      115.453     522.180     125.432
  H      117.360     524.580     119.588
  H      113.273     524.080     118.728
  H      113.163     522.466     120.605
  H      116.152     521.171     122.226
  H      115.111     523.471     123.574
  H      112.821     522.728     123.225
  H      113.861     519.930     123.921
  H      112.017     519.185     122.438
  H      111.400     520.023     123.861
  P      111.785     522.986     125.541
  C      109.518     522.259     126.631
  O      110.925     522.162     126.616
  O      110.931     522.886     124.187
  O      112.151     524.385     125.933
  H      110.882     521.977     123.838
  H      109.115     521.400     127.161
  H      109.109     522.275     125.614
  H      109.219     523.176     127.155
  H      108.771     521.996     118.374
  H      107.955     522.113     119.915
  H      108.201     520.550     119.173

 3  4  5  6  7  8  9  10  11  12  13  24  28  29  30  31  32 0
 6-311+G(2d,p)
 ****
 33  34 0
 6-311+G(2d,p)
 ****
 1  2  14  15  16  17  18  19  20  21  22  23  25  26  27 0
 3-21G
 ****
 35  36  37  38  39  40  41  42  43  44  45 0
 3-21G
 ****


