%nproc=1
%NoSave
%Mem=1900MB
#P OB98/GEN NMR

erre ene a

0 1
  C     -108.219     -89.369    -154.558
  O     -108.278     -88.868    -155.878
  H     -107.339     -88.953    -154.064
  H     -108.134     -90.459    -154.574
  H     -109.111     -89.073    -154.000
  P     -109.519     -89.352    -156.772
  C     -110.087     -88.586    -159.197
  O     -109.104     -89.071    -158.296
  C     -109.425     -88.037    -160.466
  O     -108.587     -86.898    -160.102
  C     -108.511     -89.046    -161.179
  O     -108.505     -88.729    -162.581
  C     -107.155     -88.717    -160.574
  O     -106.112     -89.305    -161.319
  C     -107.251     -87.193    -160.561
  N     -104.115     -83.184    -160.069
  C     -105.025     -83.502    -161.016
  N     -105.832     -84.581    -161.071
  C     -105.648     -85.371    -160.000
  C     -104.765     -85.172    -158.951
  C     -103.967     -84.017    -159.013
  N     -103.033     -83.693    -158.054
  N     -104.858     -86.202    -158.030
  C     -105.782     -87.005    -158.519
  N     -106.281     -86.550    -159.708
  O     -110.641     -88.251    -156.470
  O     -110.004     -90.736    -156.499
  H     -106.309     -90.247    -161.510
  H     -111.235     -88.568    -155.765
  H     -105.117     -82.798    -161.838
  H     -106.117     -87.930    -158.061
  H     -107.142     -86.772    -161.567
  H     -107.076     -89.113    -159.554
  H     -108.823     -90.087    -161.043
  H     -110.202     -87.655    -161.141
  H     -110.653     -87.790    -158.700
  H     -110.770     -89.399    -159.466
  H     -102.491     -82.855    -158.180
  H     -102.899     -84.313    -157.268
  P     -109.444     -89.565    -163.580
  C     -110.512     -88.948    -165.888
  O     -109.379     -88.891    -165.033
  O     -110.912     -89.144    -163.086
  O     -109.277     -91.049    -163.536
  H     -111.540     -89.867    -163.279
  H     -110.289     -88.451    -166.809
  H     -111.341     -88.466    -165.414
  H     -110.759     -89.970    -166.085

 6  7  8  9  10  11  12  13  14  15  25  28  32  33  34  35 0
 6-311+G(2d,p)
 ****
 36  37  40 0
 6-311+G(2d,p)
 ****
 1  2  3  4  5  16  17  18  19  20  21  22  23  24 0
 3-21G
 ****
 26  27  29  30  31  38  39 41  42  43  44  45  46  47  48 0
 3-21G
 ****


