%nproc=1
%NoSave
%Mem=1900MB
#P OB98/GEN NMR

erre ene a

0 1
  C     -506.466    -516.069    -326.846
  O     -507.614    -515.573    -326.189
  H     -505.736    -516.374    -326.089
  H     -506.019    -515.293    -327.475
  H     -506.728    -516.938    -327.454
  P     -508.793    -515.018    -327.124
  C     -510.912    -516.167    -326.215
  O     -510.087    -515.007    -326.173
  C     -510.405    -517.213    -325.223
  O     -510.503    -516.668    -323.881
  C     -511.205    -518.524    -325.250
  O     -510.317    -519.618    -325.019
  C     -512.142    -518.375    -324.063
  O     -512.601    -519.638    -323.577
  C     -511.260    -517.595    -323.084
  N     -514.948    -518.190    -319.627
  C     -514.231    -519.079    -320.345
  N     -513.242    -518.833    -321.235
  C     -512.987    -517.514    -321.302
  C     -513.629    -516.488    -320.632
  C     -514.671    -516.872    -319.763
  N     -515.433    -515.975    -319.052
  N     -513.114    -515.267    -321.003
  C     -512.156    -515.548    -321.874
  N     -512.062    -516.892    -322.098
  O     -508.968    -515.724    -328.427
  O     -508.429    -513.461    -327.231
  H     -511.845    -520.102    -323.162
  H     -508.211    -513.089    -326.355
  H     -514.487    -520.123    -320.197
  H     -511.526    -514.819    -322.378
  H     -510.562    -518.242    -322.538
  H     -513.022    -517.787    -324.345
  H     -511.747    -518.674    -326.179
  H     -509.340    -517.395    -325.418
  H     -510.923    -516.588    -327.225
  H     -516.155    -516.337    -318.450
  H     -515.237    -514.990    -319.133
  H     -511.934    -515.862    -325.956
  P     -509.914    -520.559    -326.247
  C     -507.517    -520.877    -325.343
  O     -508.705    -521.519    -325.783
  O     -509.701    -519.871    -327.552
  O     -511.146    -521.583    -326.328
  H     -511.379    -521.730    -327.275
  H     -506.795    -521.616    -325.064
  H     -507.738    -520.258    -324.499
  H     -507.123    -520.274    -326.134

 6  7  8  9  10  11  12  13  14  15  25  28  32  33  34  35 0
 6-311+G(2d,p)
 ****
 36  39  40 0
 6-311+G(2d,p)
 ****
 1  2  3  4  5  16  17  18  19  20  21  22  23  24 0
 3-21G
 ****
 26  27  29  30  31  37  38  41  42  43  44  45  46  47 0
 3-21G
 ****
 48 0
 3-21G
 ****


