%nproc=1
%NoSave
%Mem=1900MB
#P OB98/GEN NMR

erre ene a

0 1
  C     -189.309    -312.096    -154.054
  O     -188.467    -313.146    -154.483
  H     -189.642    -311.534    -154.931
  H     -188.768    -311.417    -153.390
  H     -190.188    -312.496    -153.542
  P     -187.786    -314.086    -153.379
  C     -186.143    -313.636    -151.440
  O     -186.575    -313.247    -152.740
  C     -184.620    -313.510    -151.331
  O     -184.031    -314.573    -152.120
  C     -184.100    -312.166    -151.870
  O     -183.269    -311.473    -150.941
  C     -183.493    -312.540    -153.217
  O     -182.471    -311.676    -153.663
  C     -183.054    -313.995    -153.008
  N     -182.960    -314.769    -154.243
  C     -182.206    -314.224    -155.280
  O     -181.595    -313.160    -155.228
  N     -182.157    -314.973    -156.429
  C     -182.777    -316.168    -156.641
  O     -182.690    -316.794    -157.690
  C     -183.576    -316.679    -155.516
  C     -183.631    -315.967    -154.387
  O     -187.421    -315.460    -153.834
  O     -188.859    -314.129    -152.191
  H     -182.219    -311.953    -154.568
  H     -189.341    -314.975    -152.218
  H     -181.605    -314.592    -157.184
  H     -184.089    -317.620    -155.651
  H     -184.210    -316.316    -153.536
  H     -182.083    -314.034    -152.515
  H     -184.289    -312.512    -153.971
  H     -184.929    -311.466    -152.036
  H     -184.324    -313.669    -150.288
  H     -186.450    -314.672    -151.277
  H     -186.622    -313.000    -150.687
  P     -183.538    -309.992    -150.412
  C     -182.793    -307.574    -151.111
  O     -182.751    -308.973    -151.363
  O     -183.388    -309.795    -148.942
  O     -185.088    -309.738    -150.783
  H     -185.449    -309.154    -150.088
  H     -182.211    -307.061    -151.848
  H     -182.393    -307.375    -150.139
  H     -183.806    -307.234    -151.157

 6  7  8  9  10  11  12  13  14  15  16  26  31  32  33  34  35 0
 6-311+G(2d,p)
 ****
 36  37 0
 6-311+G(2d,p)
 ****
 1  2  3  4  5  17  18  19  20  21  22  23  24  25 0
 3-21G
 ****
 27  28  29  30  38  39  40  41  42  43  44  45 0
 3-21G
 ****


