%nproc=1
%NoSave
%Mem=1900MB
#P OB98/GEN NMR

erre ene a

0 1
  C      100.226      23.191     -63.436
  O       99.059      22.560     -62.948
  H      100.212      24.255     -63.187
  H      101.099      22.732     -62.964
  H      100.300      23.063     -64.519
  P       97.656      23.116     -63.492
  C       96.548      22.900     -65.837
  O       97.753      23.006     -65.091
  C       96.655      23.760     -67.091
  O       96.983      25.122     -66.733
  C       97.748      23.311     -68.054
  O       97.334      22.243     -68.888
  C       97.962      24.584     -68.853
  O       96.897      24.745     -69.806
  C       97.864      25.657     -67.757
  N      100.940      29.477     -66.289
  C       99.692      29.472     -66.807
  N       98.934      28.411     -67.151
  C       99.581      27.263     -66.903
  C      100.852      27.110     -66.371
  C      101.549      28.290     -66.061
  N      102.832      28.301     -65.562
  N      101.184      25.773     -66.283
  C      100.126      25.132     -66.736
  N       99.144      25.990     -67.154
  O       97.744      24.693     -63.234
  O       96.435      22.494     -62.903
  H       96.071      24.482     -69.358
  H       96.862      25.101     -63.320
  H       99.247      30.449     -66.970
  H      100.026      24.056     -66.793
  H       97.424      26.592     -68.121
  H       98.899      24.578     -69.415
  H       98.674      23.063     -67.522
  H       95.676      23.773     -67.585
  H       95.714      23.251     -65.220
  H      103.299      29.192     -65.513
  H      103.346      27.433     -65.528
  H       96.380      21.854     -66.110
  P       98.480      21.377     -69.608
  C      100.327      19.772     -68.738
  O       99.450      20.852     -68.442
  O       99.358      22.491     -70.346
  O       97.972      20.337     -70.552
  H       99.740      22.141     -71.172
  H      100.907      19.535     -67.870
  H      100.980      20.052     -69.538
  H       99.754      18.916     -69.029

 6  7  8  9  10  11  12  13  14  15  25  28  32  33  34  35 0
 6-311+G(2d,p)
 ****
 36  39  40 0
 6-311+G(2d,p)
 ****
 1  2  3  4  5  16  17  18  19  20  21  22  23  24 0
 3-21G
 ****
 26  27  29  30  31  37  38  41  42  43  44  45  46  47 0
 3-21G
 ****
 48 0
 3-21G
 ****


