%nproc=1
%NoSave
%Mem=1900MB
#P OB98/GEN NMR

erre ene a

0 1
  C        1.985      15.046      -5.219
  O        2.680      14.832      -6.432
  H        2.351      15.971      -4.765
  H        2.163      14.222      -4.524
  H        0.913      15.149      -5.406
  P        2.323      13.528      -7.289
  C        4.753      13.284      -8.127
  O        3.685      12.689      -7.402
  C        5.962      12.357      -8.130
  O        6.560      12.304      -6.821
  C        5.637      10.915      -8.518
  O        5.546      10.790      -9.928
  C        6.838      10.195      -7.929
  O        7.986      10.390      -8.776
  C        7.025      10.944      -6.598
  N        7.205       7.728      -2.685
  C        8.147       7.992      -3.661
  N        9.281       7.260      -3.609
  N        7.982       8.875      -4.611
  C        6.772       9.476      -4.577
  C        5.752       9.288      -3.672
  C        5.968       8.349      -2.592
  O        5.167       8.099      -1.697
  N        4.647      10.031      -3.998
  C        5.012      10.696      -5.076
  N        6.289      10.384      -5.477
  O        1.649      13.764      -8.608
  O        1.426      12.646      -6.303
  H        8.683       9.798      -8.440
  H        0.478      12.832      -6.429
  H        7.384       7.022      -1.991
  H        4.395      11.415      -5.601
  H        8.077      11.001      -6.297
  H        6.687       9.121      -7.827
  H        9.334       6.393      -3.090
  H        4.734      10.554      -8.016
  H        9.961       7.402      -4.344
  H        6.711      12.785      -8.809
  H        4.997      14.232      -7.636
  H        4.445      13.491      -9.157
  P        5.322       9.357     -10.619
  C        6.420      10.349     -12.736
  O        6.412       9.288     -11.791
  O        3.922       9.083     -11.052
  O        5.887       8.307      -9.558
  H        5.213       8.009      -8.899
  H        7.191      10.178     -13.458
  H        6.602      11.275     -12.231
  H        5.472      10.393     -13.231

 6  7  8  9  10  11  12  13  14  15  26  29  33  34 0
 6-311+G(2d,p)
 ****
 36  38  39  40  41 0
 6-311+G(2d,p)
 ****
 1  2  3  4  5  16  17  18  19  20  21  22  23  24  25 0
 3-21G
 ****
 27  28  30  31  32  35  37  42  43  44  45  46  47 0
 3-21G
 ****
 48  49 0
 3-21G
 ****


