%nproc=1
%NoSave
%Mem=1900MB
#P OB98/GEN NMR

erre ene a

0 1
  C     1680.683     869.599     464.258
  O     1680.285     870.300     463.097
  H     1681.777     869.565     464.292
  H     1680.298     868.585     464.232
  H     1680.319     870.112     465.158
  P     1678.737     870.686     462.957
  C     1679.227     873.166     463.566
  O     1678.505     871.980     463.870
  C     1678.290     874.195     462.926
  O     1677.866     873.680     461.631
  C     1677.023     874.483     463.742
  O     1676.703     875.870     463.562
  C     1675.962     873.655     463.051
  O     1674.648     874.101     463.246
  C     1676.425     873.745     461.596
  N     1675.866     872.691     460.758
  C     1676.010     872.825     459.370
  O     1676.647     873.708     458.825
  N     1675.383     871.869     458.614
  C     1674.616     870.834     459.090
  O     1674.067     870.015     458.350
  C     1674.510     870.752     460.562
  C     1675.122     871.670     461.308
  O     1678.004     869.511     463.772
  O     1678.234     870.820     461.558
  H     1677.801     868.767     463.168
  H     1674.615     875.070     463.061
  H     1675.481     871.943     457.622
  H     1673.894     869.949     460.972
  H     1675.034     871.637     462.390
  H     1676.159     874.722     461.168
  H     1676.037     872.608     463.395
  H     1677.099     874.244     464.800
  H     1678.865     875.115     462.723
  H     1680.024     872.932     462.868
  H     1679.645     873.563     464.499
  P     1676.684     876.773     464.905
  C     1678.852     877.862     463.904
  O     1678.180     877.350     465.046
  O     1676.575     875.669     466.046
  O     1675.588     877.790     464.910
  H     1677.051     874.847     465.819
  H     1679.828     878.199     464.186
  H     1678.295     878.681     463.500
  H     1678.939     877.092     463.166

 6  7  8  9  10  11  12  13  14  15  16  27  31  32  33  34  35 0
 6-311+G(2d,p)
 ****
 36  37 0
 6-311+G(2d,p)
 ****
 1  2  3  4  5  17  18  19  20  21  22  23  24  25 0
 3-21G
 ****
 26  28  29  30  38  39  40  41  42  43  44  45 0
 3-21G
 ****


