%nproc=1
%NoSave
%Mem=1900MB
#P OB98/GEN NMR

erre ene a

0 1
  C      788.280    -363.477     583.018
  O      788.849    -364.766     583.067
  H      787.363    -363.523     582.422
  H      788.974    -362.782     582.540
  H      788.029    -363.114     584.017
  P      790.011    -365.055     584.131
  C      788.469    -365.994     585.981
  O      789.352    -364.954     585.590
  C      788.548    -366.243     587.489
  O      789.893    -366.676     587.828
  C      788.279    -364.960     588.291
  O      787.733    -365.236     589.574
  C      789.672    -364.370     588.455
  O      789.778    -363.478     589.566
  C      790.510    -365.639     588.603
  N      795.227    -364.174     589.900
  C      794.044    -364.004     590.582
  N      794.127    -363.368     591.778
  N      792.885    -364.406     590.130
  C      792.939    -364.962     588.903
  C      794.049    -365.161     588.108
  C      795.339    -364.747     588.633
  O      796.411    -364.844     588.054
  N      793.715    -365.738     586.913
  C      792.407    -365.899     586.972
  N      791.897    -365.460     588.178
  O      790.921    -363.736     584.066
  O      790.822    -366.293     583.885
  H      790.712    -363.202     589.637
  H      791.817    -363.926     584.393
  H      796.101    -363.877     590.303
  H      791.789    -366.330     586.197
  H      790.542    -365.969     589.651
  H      789.917    -363.801     587.555
  H      794.962    -362.882     592.062
  H      787.632    -364.260     587.762
  H      793.254    -362.969     592.141
  H      787.876    -367.059     587.772
  H      788.766    -366.888     585.422
  H      787.444    -365.758     585.680
  P      786.180    -364.912     589.831
  C      785.447    -367.448     589.609
  O      785.277    -366.092     589.241
  O      785.880    -363.685     588.848
  O      785.841    -364.598     591.252
  H      785.649    -362.883     589.363
  H      784.733    -368.051     589.088
  H      785.301    -367.552     590.664
  H      786.436    -367.766     589.353

 6  7  8  9  10  11  12  13  14  15  26  29  33  34 0
 6-311+G(2d,p)
 ****
 36  38  39  40  41 0
 6-311+G(2d,p)
 ****
 1  2  3  4  5  16  17  18  19  20  21  22  23  24  25 0
 3-21G
 ****
 27  28  30  31  32  35  37  42  43  44  45  46  47 0
 3-21G
 ****
 48  49 0
 3-21G
 ****


