%nproc=1
%NoSave
%Mem=1900MB
#P OB98/GEN NMR

erre ene a

0 1
  C      -77.712      26.345     125.795
  O      -77.515      27.481     124.979
  P      -78.707      28.048     124.068
  C      -78.522      30.388     125.135
  O      -79.352      29.251     124.913
  C      -78.976      31.568     124.275
  O      -80.340      31.921     124.578
  C      -78.162      32.837     124.482
  O      -76.917      32.747     123.814
  C      -79.109      33.888     123.919
  O      -79.009      33.967     122.488
  C      -80.490      33.337     124.338
  N      -81.035      34.028     125.499
  C      -82.155      34.833     125.260
  O      -82.604      34.954     124.121
  N      -82.707      35.521     126.314
  C      -82.172      35.430     127.492
  N      -82.758      36.145     128.491
  C      -80.974      34.618     127.778
  C      -80.461      33.952     126.745
  O      -79.670      27.025     123.570
  O      -77.931      28.814     122.894
  H      -79.853      34.349     122.176
  H      -77.529      28.179     122.253
  H      -80.558      34.582     128.773
  H      -79.580      33.333     126.865
  H      -81.209      33.434     123.514
  H      -78.895      34.887     124.311
  H      -78.015      33.013     125.554
  H      -78.931      31.257     123.222
  H      -83.559      36.713     128.247
  H      -77.496      30.122     124.869
  H      -82.403      36.174     129.434
  H      -78.546      30.652     126.197
  P      -75.573      33.168     124.573
  C      -74.685      30.794     124.963
  O      -75.176      31.976     125.565
  O      -75.583      34.530     125.184
  O      -74.455      33.072     123.429
  H      -73.875      33.855     123.485
  H      -74.151      30.211     125.718
  H      -74.001      31.025     124.143
  H      -75.522      30.203     124.586
  H      -76.808      26.123     126.322
  H      -77.982      25.509     125.184
  H      -78.495      26.542     126.497

 3  4  5  6  7  8  9  10  11  12  13  23  27  28  29  30  32 0
 6-311+G(2d,p)
 ****
 34  35 0
 6-311+G(2d,p)
 ****
 1  2  14  15  16  17  18  19  20  21  22  24  25  26 0
 3-21G
 ****
 31  33  36  37  38  39  40  41  42  43  44  45  46 0
 3-21G
 ****


