%nproc=1
%NoSave
%Mem=1900MB
#P OB98/GEN NMR

erre ene a

0 1
  C     -268.934    -257.711     457.808
  O     -268.151    -258.251     456.743
  P     -266.580    -258.465     456.945
  C     -265.580    -259.245     459.201
  O     -266.336    -259.602     458.049
  C     -265.811    -260.270     460.316
  O     -267.222    -260.442     460.598
  C     -265.319    -261.666     459.952
  O     -263.922    -261.845     459.857
  C     -266.071    -262.543     460.941
  O     -265.415    -262.590     462.204
  C     -267.419    -261.794     461.053
  N     -268.493    -262.456     460.309
  C     -268.928    -263.678     460.813
  O     -268.425    -264.219     461.797
  N     -269.942    -264.282     460.121
  C     -270.528    -263.811     458.982
  O     -271.417    -264.408     458.387
  C     -270.012    -262.529     458.484
  C     -269.034    -261.917     459.158
  O     -265.775    -257.225     457.123
  O     -266.147    -259.212     455.587
  H     -265.895    -263.236     462.760
  H     -265.290    -258.840     455.301
  H     -270.271    -265.166     460.476
  H     -270.449    -262.125     457.580
  H     -268.642    -260.969     458.809
  H     -267.733    -261.731     462.106
  H     -266.150    -263.575     460.584
  H     -265.715    -261.910     458.953
  H     -265.336    -259.905     461.227
  H     -265.867    -258.249     459.538
  H     -264.522    -259.188     458.929
  P     -263.210    -262.594     458.631
  C     -263.345    -262.409     456.048
  O     -263.490    -261.757     457.290
  O     -263.358    -264.077     458.555
  O     -261.662    -262.252     458.909
  H     -261.120    -263.007     458.605
  H     -263.558    -261.687     455.252
  H     -264.048    -263.242     455.964
  H     -262.319    -262.772     455.925
  H     -269.956    -257.638     457.498
  H     -268.568    -256.738     458.062
  H     -268.865    -258.352     458.662

 3  4  5  6  7  8  9  10  11  12  13  23  28  29  30  31  32 0
 6-311+G(2d,p)
 ****
 33  34 0
 6-311+G(2d,p)
 ****
 1  2  14  15  16  17  18  19  20  21  22  24  25  26  27 0
 3-21G
 ****
 35  36  37  38  39  40  41  42  43  44  45 0
 3-21G
 ****


