%nproc=1
%NoSave
%Mem=1900MB
#P OB98/GEN NMR

erre ene a

0 1
  C     -176.070     -19.242      61.684
  O     -174.790     -19.072      62.265
  H     -175.976     -19.153      60.599
  H     -176.757     -18.468      62.040
  H     -176.470     -20.231      61.922
  P     -174.664     -19.155      63.861
  C     -175.994     -18.186      65.855
  O     -175.806     -18.189      64.444
  C     -176.993     -17.100      66.247
  O     -176.414     -15.794      66.054
  C     -178.286     -17.127      65.435
  O     -179.171     -18.113      65.944
  C     -178.781     -15.706      65.658
  O     -179.355     -15.592      66.975
  C     -177.466     -14.907      65.579
  N     -178.368     -11.439      61.989
  C     -178.977     -11.625      63.218
  N     -180.000     -10.792      63.511
  N     -178.626     -12.553      64.071
  C     -177.638     -13.353      63.610
  C     -176.969     -13.281      62.407
  C     -177.325     -12.213      61.496
  O     -176.802     -12.003      60.405
  N     -176.068     -14.305      62.269
  C     -176.165     -14.978      63.398
  N     -177.114     -14.449      64.244
  O     -173.303     -18.897      64.436
  O     -175.200     -20.618      64.219
  H     -178.641     -15.798      67.608
  H     -174.470     -21.263      64.258
  H     -178.695     -10.716      61.370
  H     -175.574     -15.847      63.658
  H     -177.476     -14.025      66.233
  H     -179.543     -15.398      64.942
  H     -180.483     -10.266      62.792
  H     -178.093     -17.264      64.364
  H     -180.491     -10.945      64.384
  H     -177.197     -17.206      67.321
  H     -175.019     -17.996      66.318
  H     -176.359     -19.161      66.193
  P     -179.932     -19.132      64.960
  C     -181.550     -18.792      62.972
  O     -180.965     -18.224      64.138
  O     -180.541     -20.317      65.635
  O     -178.843     -19.509      63.853
  H     -178.278     -20.286      64.099
  H     -182.214     -18.083      62.525
  H     -182.096     -19.672      63.240
  H     -180.780     -19.048      62.275

 6  7  8  9  10  11  12  13  14  15  26  29  33  34 0
 6-311+G(2d,p)
 ****
 36  38  39  40  41 0
 6-311+G(2d,p)
 ****
 1  2  3  4  5  16  17  18  19  20  21  22  23  24  25 0
 3-21G
 ****
 27  28  30  31  32  35  37  42  43  44  45  46  47 0
 3-21G
 ****
 48  49 0
 3-21G
 ****


