%nproc=1
%NoSave
%Mem=1900MB
#P OB98/GEN NMR

erre ene a

0 1
  C       40.360     -80.087     192.794
  O       40.051     -79.372     193.979
  P       40.650     -79.948     195.356
  C       38.145     -80.492     195.867
  O       39.411     -80.086     196.363
  C       37.323     -81.107     196.993
  O       37.893     -82.368     197.408
  C       37.241     -80.247     198.251
  O       36.249     -79.247     198.105
  C       36.915     -81.291     199.316
  O       35.506     -81.603     199.315
  C       37.746     -82.494     198.849
  N       40.192     -83.192     203.217
  C       38.846     -82.988     202.976
  N       38.030     -83.020     204.049
  N       38.343     -82.778     201.787
  C       39.282     -82.761     200.807
  C       40.645     -82.930     200.924
  C       41.174     -83.217     202.238
  O       42.341     -83.503     202.490
  N       41.269     -82.824     199.709
  C       40.284     -82.614     198.858
  N       39.055     -82.588     199.469
  O       41.486     -78.713     195.929
  O       41.476     -81.189     195.220
  H       35.235     -81.859     198.417
  H       42.437     -78.813     195.725
  H       40.516     -83.372     204.155
  H       40.404     -82.502     197.792
  H       37.235     -83.446     199.033
  H       37.153     -80.940     200.323
  H       38.347     -83.152     205.000
  H       38.217     -79.797     198.469
  H       37.040     -82.870     203.894
  H       36.315     -81.312     196.608
  H       38.291     -81.239     195.079
  H       37.633     -79.624     195.439
  P       36.665     -77.896     197.346
  C       36.195     -76.188     199.247
  O       35.806     -76.707     197.991
  O       36.035     -78.084     195.887
  O       38.137     -77.655     197.275
  H       36.626     -77.686     195.218
  H       35.906     -75.134     199.296
  H       37.281     -76.261     199.398
  H       35.685     -76.733     200.040
  H       39.904     -79.602     191.956
  H       39.988     -81.087     192.874
  H       41.421     -80.111     192.658

 3  4  5  6  7  8  9  10  11  12  23  26  30  31 0
 6-311+G(2d,p)
 ****
 33  35  36  37  38 0
 6-311+G(2d,p)
 ****
 1  2  13  14  15  16  17  18  19  20  21  22  24  25 0
 3-21G
 ****
 27  28  29  32  34  39  40  41  42  43  44  45  46  47  48  49 0
 3-21G
 ****


