%nproc=1
%NoSave
%Mem=1900MB
#P OB98/GEN NMR

erre ene a

0 1
  C       42.415     449.805      92.080
  O       41.442     450.373      91.218
  P       41.876     451.152      89.892
  C       41.193     453.395      91.075
  O       42.103     452.688      90.260
  C       41.986     454.235      92.089
  O       42.998     453.425      92.722
  C       42.678     455.416      91.418
  O       41.879     456.583      91.507
  C       43.981     455.516      92.186
  O       43.786     456.223      93.423
  C       44.295     454.026      92.464
  N       44.955     453.241      91.399
  C       45.492     451.994      91.700
  O       45.426     451.469      92.810
  N       46.141     451.361      90.667
  C       46.256     451.834      89.392
  O       47.034     451.385      88.556
  C       45.442     453.011      89.078
  C       44.857     453.662      90.082
  O       40.528     451.175      89.030
  O       43.015     450.548      89.137
  H       43.678     457.168      93.199
  H       40.539     450.468      88.358
  H       46.653     450.520      90.915
  H       45.391     453.338      88.051
  H       44.283     454.564      89.876
  H       44.899     453.911      93.370
  H       44.728     456.080      91.628
  H       42.907     455.179      90.371
  H       41.298     454.589      92.868
  H       40.532     452.693      91.595
  H       40.563     454.041      90.460
  P       41.224     457.199      90.183
  C       42.804     459.195      90.507
  O       42.325     458.216      89.606
  O       39.854     457.765      90.345
  O       41.248     455.969      89.155
  H       40.371     455.534      89.143
  H       43.662     459.700      90.055
  H       43.118     458.734      91.448
  H       42.021     459.936      90.699
  H       41.927     449.331      92.906
  H       43.063     450.575      92.443
  H       42.989     449.081      91.541

 3  4  5  6  7  8  9  10  11  12  13  23  28  29  30  31  32 0
 6-311+G(2d,p)
 ****
 33  34 0
 6-311+G(2d,p)
 ****
 1  2  14  15  16  17  18  19  20  21  22  24  25  26  27 0
 3-21G
 ****
 35  36  37  38  39  40  41  42  43  44  45 0
 3-21G
 ****


