%nproc=1
%NoSave
%Mem=1900MB
#P OB98/GEN NMR

erre ene a

0 1
  C      935.888    -479.797    1187.714
  O      934.770    -479.929    1188.585
  P      933.427    -479.078    1188.338
  C      933.035    -476.543    1188.244
  O      933.765    -477.599    1188.853
  C      932.471    -475.590    1189.350
  O      933.587    -475.072    1190.110
  C      931.701    -474.374    1188.838
  O      930.330    -474.610    1188.536
  C      931.825    -473.458    1190.056
  O      930.859    -473.878    1191.041
  C      933.236    -473.728    1190.557
  N      936.890    -470.393    1191.832
  C      936.092    -471.218    1192.564
  N      935.136    -472.041    1192.162
  C      935.021    -472.041    1190.822
  C      935.769    -471.260    1189.938
  C      936.719    -470.376    1190.477
  N      937.536    -469.598    1189.721
  N      935.406    -471.515    1188.626
  C      934.436    -472.424    1188.717
  N      934.197    -472.783    1190.025
  O      932.190    -479.694    1188.914
  O      933.360    -478.906    1186.739
  H      929.951    -473.637    1190.714
  H      932.459    -478.621    1186.459
  H      936.246    -471.155    1193.657
  H      933.907    -472.875    1187.908
  H      933.322    -473.739    1191.648
  H      931.586    -472.422    1189.827
  H      932.226    -473.906    1187.991
  H      931.836    -476.183    1190.042
  H      932.175    -476.987    1187.698
  H      938.281    -469.100    1190.217
  H      937.553    -469.727    1188.690
  H      933.665    -475.993    1187.561
  P      929.652    -473.686    1187.390
  C      929.585    -471.101    1186.980
  O      929.904    -472.169    1187.873
  O      928.246    -474.058    1187.075
  O      930.675    -473.860    1186.155
  H      931.573    -473.458    1186.300
  H      929.660    -470.185    1187.551
  H      928.576    -471.186    1186.599
  H      930.331    -471.067    1186.177
  H      936.676    -480.441    1188.045
  H      936.229    -478.783    1187.723
  H      935.600    -480.068    1186.720

 3  4  5  6  7  8  9  10  11  12  22  25  29  30  31  32 0
 6-311+G(2d,p)
 ****
 33  36  37 0
 6-311+G(2d,p)
 ****
 1  2  13  14  15  16  17  18  19  20  21  23  24  26 0
 3-21G
 ****
 27  28  34  35  38  39  40  41  42  43  44  45  46  47  48 0
 3-21G
 ****


