%nproc=1
%NoSave
%Mem=1900MB
#P OB98/GEN NMR

erre ene a

0 1
  C       14.360     739.188     216.003
  O       15.549     738.497     216.330
  P       16.910     739.350     216.379
  C       16.962     739.175     218.979
  O       17.650     738.969     217.748
  C       17.726     738.510     220.121
  O       17.774     737.085     219.925
  C       19.177     738.951     220.261
  O       19.263     740.241     220.846
  C       19.732     737.820     221.117
  O       19.371     738.023     222.492
  C       18.993     736.595     220.550
  N       21.941     732.491     219.731
  C       21.334     732.959     220.841
  N       20.582     734.073     220.988
  C       20.482     734.726     219.821
  C       21.064     734.385     218.611
  C       21.822     733.206     218.588
  N       22.446     732.741     217.450
  N       20.752     735.317     217.639
  C       19.984     736.194     218.252
  N       19.780     735.874     219.563
  O       16.394     740.840     216.638
  O       17.755     739.255     215.147
  H       18.432     738.298     222.509
  H       16.965     741.491     216.188
  H       21.469     732.358     221.740
  H       19.556     737.070     217.783
  H       18.704     735.885     221.329
  H       20.822     737.745     221.071
  H       19.668     738.958     219.280
  H       17.177     738.709     221.054
  H       15.962     738.732     218.913
  H       23.090     731.971     217.555
  H       22.470     733.346     216.637
  H       16.854     740.249     219.151
  P       20.656     741.030     220.680
  C       19.225     742.486     219.117
  O       20.212     742.477     220.135
  O       21.266     740.334     219.374
  O       21.524     741.031     221.888
  H       20.622     740.282     218.653
  H       18.981     743.518     218.876
  H       18.324     741.972     219.460
  H       19.616     741.995     218.216
  H       13.537     738.504     216.007
  H       14.457     739.624     215.031
  H       14.186     739.959     216.724

 3  4  5  6  7  8  9  10  11  12  22  25  29  30  31  32 0
 6-311+G(2d,p)
 ****
 33  36  37 0
 6-311+G(2d,p)
 ****
 1  2  13  14  15  16  17  18  19  20  21  23  24  26 0
 3-21G
 ****
 27  28  34  35  38  39  40  41  42  43  44  45  46  47  48 0
 3-21G
 ****


