%nproc=1
%NoSave
%Mem=1900MB
#P OB98/GEN NMR

erre ene a

0 1
  C      492.150     612.867    -213.920
  O      491.450     611.668    -213.574
  P      492.251     610.282    -213.475
  C      490.259     608.668    -213.893
  O      491.250     609.128    -212.965
  C      489.446     607.528    -213.258
  O      490.261     606.348    -213.049
  C      488.910     607.880    -211.877
  O      487.883     608.856    -211.822
  C      488.595     606.516    -211.303
  O      487.323     606.036    -211.721
  C      489.733     605.658    -211.896
  N      490.792     605.353    -210.928
  C      491.096     604.007    -210.758
  O      490.503     603.103    -211.338
  N      492.097     603.731    -209.856
  C      492.771     604.654    -209.110
  O      493.649     604.349    -208.306
  C      492.396     606.056    -209.321
  C      491.432     606.341    -210.205
  O      493.558     610.346    -212.760
  O      492.467     609.890    -215.017
  H      487.275     606.122    -212.696
  H      493.369     609.525    -215.110
  H      492.335     602.761    -209.725
  H      492.912     606.812    -208.735
  H      491.131     607.367    -210.375
  H      489.337     604.698    -212.261
  H      488.572     606.540    -210.198
  H      489.741     608.295    -211.287
  H      488.634     607.260    -213.947
  H      490.743     608.323    -214.806
  H      489.615     609.512    -214.172
  P      488.125     610.404    -212.186
  C      486.451     611.201    -210.364
  O      486.830     611.231    -211.732
  O      488.707     610.715    -213.523
  O      489.192     610.821    -211.054
  H      489.788     611.501    -211.431
  H      485.544     611.806    -210.241
  H      487.247     611.616    -209.749
  H      486.231     610.176    -210.059
  H      491.464     613.688    -213.939
  H      492.597     612.753    -214.886
  H      492.913     613.057    -213.194

 3  4  5  6  7  8  9  10  11  12  13  23  28  29  30  31  32 0
 6-311+G(2d,p)
 ****
 33  34 0
 6-311+G(2d,p)
 ****
 1  2  14  15  16  17  18  19  20  21  22  24  25  26  27 0
 3-21G
 ****
 35  36  37  38  39  40  41  42  43  44  45 0
 3-21G
 ****


