%nproc=1
%NoSave
%Mem=1900MB
#P OB98/GEN NMR

erre ene a

0 1
  C      335.490     -62.228     -54.325
  O      336.456     -61.377     -54.913
  H      335.971     -63.170     -54.047
  H      334.686     -62.444     -55.033
  H      335.074     -61.770     -53.423
  P      335.987     -59.928     -55.411
  C      337.075     -58.938     -53.287
  O      335.906     -59.017     -54.097
  C      337.271     -57.509     -52.789
  O      337.643     -56.640     -53.879
  C      336.024     -56.893     -52.155
  O      335.881     -57.333     -50.814
  C      336.353     -55.414     -52.271
  O      337.312     -55.052     -51.257
  C      337.007     -55.353     -53.666
  N      336.006     -52.449     -57.702
  C      337.030     -52.362     -56.772
  N      337.880     -51.323     -56.921
  N      337.192     -53.200     -55.781
  C      336.221     -54.144     -55.723
  C      335.155     -54.320     -56.571
  C      335.020     -53.428     -57.696
  O      334.137     -53.480     -58.547
  N      334.345     -55.352     -56.146
  C      334.947     -55.811     -55.069
  N      336.082     -55.110     -54.760
  O      334.749     -59.886     -56.254
  O      337.264     -59.351     -56.182
  H      337.717     -54.211     -51.538
  H      337.220     -59.551     -57.133
  H      335.930     -51.764     -58.431
  H      334.604     -56.662     -54.479
  H      337.788     -54.589     -53.725
  H      335.487     -54.769     -52.148
  H      337.639     -50.511     -57.478
  H      335.123     -57.094     -52.751
  H      338.606     -51.209     -56.228
  H      338.110     -57.512     -52.081
  H      337.923     -59.251     -53.900
  H      336.989     -59.617     -52.430
  P      334.462     -57.243     -50.056
  C      333.624     -59.646     -50.523
  O      333.516     -58.268     -50.849
  O      333.915     -55.865     -49.919
  O      334.704     -57.997     -48.674
  H      335.035     -57.400     -47.952
  H      332.941     -60.209     -51.124
  H      333.390     -59.787     -49.489
  H      334.623     -59.980     -50.711

 6  7  8  9  10  11  12  13  14  15  26  29  33  34 0
 6-311+G(2d,p)
 ****
 36  38  39  40  41 0
 6-311+G(2d,p)
 ****
 1  2  3  4  5  16  17  18  19  20  21  22  23  24  25 0
 3-21G
 ****
 27  28  30  31  32  35  37  42  43  44  45  46  47 0
 3-21G
 ****
 48  49 0
 3-21G
 ****


