%nproc=1
%NoSave
%Mem=1900MB
#P OB98/GEN NMR

erre ene a

0 1
  C     -360.084      50.720     389.315
  O     -359.121      50.586     390.341
  H     -359.590      51.119     388.420
  H     -360.870      51.411     389.625
  H     -360.518      49.744     389.065
  P     -359.641      50.009     391.750
  C     -358.088      47.926     391.652
  O     -358.429      49.125     392.347
  C     -356.716      47.427     392.115
  O     -355.687      48.293     391.542
  C     -356.522      47.423     393.637
  O     -355.757      46.281     394.008
  C     -355.687      48.680     393.880
  O     -354.962      48.605     395.107
  C     -354.818      48.679     392.626
  N     -350.511      51.276     392.863
  C     -350.775      49.945     393.145
  N     -349.728      49.181     393.548
  N     -351.961      49.406     393.028
  C     -352.903      50.272     392.586
  C     -352.766      51.611     392.291
  C     -351.454      52.195     392.431
  O     -351.163      53.372     392.228
  N     -353.976      52.157     391.911
  C     -354.831      51.143     391.972
  N     -354.227      49.983     392.375
  O     -360.727      48.912     391.327
  O     -360.199      51.022     392.693
  H     -354.309      47.883     395.027
  H     -361.423      48.833     392.013
  H     -349.572      51.638     392.972
  H     -355.886      51.209     391.750
  H     -353.993      47.961     392.686
  H     -356.345      49.559     393.908
  H     -348.773      49.521     393.624
  H     -357.465      47.429     394.194
  H     -349.896      48.201     393.743
  H     -356.556      46.426     391.693
  H     -358.068      48.132     390.575
  H     -358.845      47.164     391.868
  P     -356.549      44.914     394.281
  C     -354.967      43.368     392.901
  O     -355.505      43.678     394.170
  O     -357.443      44.746     392.967
  O     -357.386      44.926     395.515
  H     -358.375      44.912     393.170
  H     -354.300      42.536     392.990
  H     -354.432      44.215     392.524
  H     -355.761      43.119     392.228

 6  7  8  9  10  11  12  13  14  15  26  29  33  34 0
 6-311+G(2d,p)
 ****
 36  38  39  40  41 0
 6-311+G(2d,p)
 ****
 1  2  3  4  5  16  17  18  19  20  21  22  23  24  25 0
 3-21G
 ****
 27  28  30  31  32  35  37  42  43  44  45  46  47 0
 3-21G
 ****
 48  49 0
 3-21G
 ****


