%nproc=1
%NoSave
%Mem=1900MB
#P OB98/GEN NMR

erre ene a

0 1
  C      139.738     304.996     713.416
  O      138.561     304.240     713.615
  H      140.456     304.385     712.862
  H      140.182     305.264     714.379
  H      139.528     305.899     712.836
  P      137.286     304.957     714.271
  C      138.048     304.794     716.730
  O      137.120     304.354     715.746
  C      138.060     303.815     717.901
  O      136.784     303.832     718.581
  C      138.294     302.367     717.492
  O      139.655     302.131     717.186
  C      137.779     301.634     718.723
  O      138.769     301.619     719.762
  C      136.570     302.508     719.125
  N      135.295     301.955     718.676
  C      134.938     300.718     719.200
  O      135.650     300.080     719.974
  N      133.736     300.214     718.777
  C      132.932     300.757     717.820
  O      131.906     300.222     717.412
  C      133.369     302.056     717.282
  C      134.510     302.586     717.728
  O      136.044     304.952     713.442
  O      137.795     306.449     714.550
  H      139.524     301.103     719.415
  H      137.411     307.052     713.886
  H      133.467     299.310     719.135
  H      132.754     302.527     716.530
  H      134.855     303.537     717.339
  H      136.529     302.621     720.216
  H      137.522     300.597     718.511
  H      137.654     302.111     716.638
  H      138.828     304.147     718.616
  H      137.743     305.785     717.084
  H      139.041     304.869     716.272
  P      140.048     301.036     716.090
  C      140.125     298.992     717.641
  O      140.879     299.879     716.828
  O      140.678     301.574     714.846
  O      138.656     300.319     715.752
  H      138.451     300.438     714.807
  H      140.779     298.267     718.080
  H      139.392     298.494     717.041
  H      139.636     299.546     718.415

 6  7  8  9  10  11  12  13  14  15  16  26  31  32  33  34  35 0
 6-311+G(2d,p)
 ****
 36  37 0
 6-311+G(2d,p)
 ****
 1  2  3  4  5  17  18  19  20  21  22  23  24  25 0
 3-21G
 ****
 27  28  29  30  38  39  40  41  42  43  44  45 0
 3-21G
 ****


