%nproc=1
%NoSave
%Mem=1900MB
#P OB98/GEN NMR

erre ene a

0 1
  C      -33.100      93.012    1177.687
  O      -32.864      93.734    1178.890
  P      -32.207      95.191    1178.857
  C      -34.417      96.287    1178.145
  O      -33.062      96.020    1177.787
  C      -34.722      97.770    1177.954
  O      -34.030      98.511    1178.995
  C      -34.243      98.396    1176.643
  O      -35.128      98.223    1175.549
  C      -34.194      99.866    1177.022
  O      -35.528     100.418    1176.997
  C      -33.671      99.818    1178.466
  N      -29.896     103.182    1179.220
  C      -31.243     103.310    1179.233
  N      -32.189     102.379    1179.008
  C      -31.604     101.175    1178.780
  C      -30.255     100.893    1178.730
  C      -29.376     101.966    1178.961
  N      -28.003     101.817    1178.964
  N      -30.047      99.557    1178.439
  C      -31.255      99.044    1178.338
  N      -32.229      99.987    1178.543
  O      -30.731      95.199    1178.659
  O      -32.638      95.847    1180.251
  H      -35.850     100.343    1176.079
  H      -32.081      96.620    1180.451
  H      -31.621     104.308    1179.462
  H      -31.483      98.011    1178.113
  H      -34.142     100.572    1179.107
  H      -33.588     100.468    1176.339
  H      -33.229      98.057    1176.385
  H      -35.795      97.934    1178.083
  H      -34.556      96.020    1179.194
  H      -27.456     102.610    1179.257
  H      -27.622     100.886    1178.928
  H      -35.086      95.674    1177.536
  P      -34.519      98.358    1174.069
  C      -33.709      95.889    1173.735
  O      -33.369      97.241    1173.967
  O      -34.089      99.738    1173.707
  O      -35.680      97.782    1173.139
  H      -35.858      96.824    1173.236
  H      -32.792      95.331    1173.537
  H      -34.355      95.802    1172.862
  H      -34.207      95.471    1174.604
  H      -33.542      92.066    1177.920
  H      -32.173      92.856    1177.177
  H      -33.763      93.571    1177.060

 3  4  5  6  7  8  9  10  11  12  22  25  29  30  31  32 0
 6-311+G(2d,p)
 ****
 33  36  37 0
 6-311+G(2d,p)
 ****
 1  2  13  14  15  16  17  18  19  20  21  23  24  26 0
 3-21G
 ****
 27  28  34  35  38  39  40  41  42  43  44  45  46  47  48 0
 3-21G
 ****


