%nproc=1
%NoSave
%Mem=1900MB
#P OB98/GEN NMR

erre ene a

0 1
  C      -43.638     -44.380    -318.350
  O      -42.472     -43.948    -317.676
  H      -43.405     -44.503    -319.411
  H      -44.427     -43.631    -318.248
  H      -43.978     -45.338    -317.947
  P      -42.546     -43.869    -316.078
  C      -40.632     -42.071    -316.061
  O      -41.939     -42.445    -315.644
  C      -40.441     -40.566    -315.884
  O      -41.283     -39.824    -316.787
  C      -40.839     -40.052    -314.511
  O      -39.939     -40.439    -313.498
  C      -40.864     -38.554    -314.776
  O      -39.540     -38.005    -314.769
  C      -41.469     -38.507    -316.202
  N      -42.871     -38.109    -316.199
  C      -43.116     -36.740    -316.352
  O      -42.180     -35.951    -316.485
  N      -44.415     -36.297    -316.316
  C      -45.384     -37.145    -316.171
  N      -46.646     -36.641    -316.135
  C      -45.171     -38.599    -316.033
  C      -43.902     -39.006    -316.052
  O      -41.405     -44.892    -315.625
  O      -43.891     -44.140    -315.489
  H      -39.023     -38.525    -315.417
  H      -40.538     -44.714    -316.027
  H      -46.010     -39.271    -315.923
  H      -43.658     -40.057    -315.956
  H      -40.916     -37.798    -316.831
  H      -41.436     -38.013    -314.019
  H      -41.863     -40.367    -314.271
  H      -39.394     -40.328    -316.114
  H      -46.753     -35.635    -316.211
  H      -40.455     -42.364    -317.099
  H      -47.474     -37.201    -315.993
  H      -39.919     -42.617    -315.436
  P      -40.431     -40.576    -311.977
  C      -38.303     -41.948    -311.508
  O      -39.112     -40.848    -311.103
  O      -41.536     -41.551    -311.753
  O      -40.799     -39.070    -311.574
  H      -40.059     -38.439    -311.636
  H      -37.459     -42.029    -310.855
  H      -37.965     -41.792    -312.511
  H      -38.878     -42.849    -311.462

 6  7  8  9  10  11  12  13  14  15  16  26  30  31  32  33  35 0
 6-311+G(2d,p)
 ****
 37  38 0
 6-311+G(2d,p)
 ****
 1  2  3  4  5  17  18  19  20  21  22  23  24  25 0
 3-21G
 ****
 27  28  29  34  36  39  40  41  42  43  44  45  46 0
 3-21G
 ****


