%nproc=1
%NoSave
%Mem=1900MB
#P OB98/GEN NMR

erre ene a

0 1
  C       83.485      -6.381     -56.866
  O       83.662      -7.215     -55.718
  P       84.758      -6.764     -54.639
  C       83.139      -6.694     -52.602
  O       84.293      -7.277     -53.195
  C       82.533      -7.652     -51.575
  O       81.844      -8.739     -52.220
  C       83.573      -8.312     -50.686
  O       84.008      -7.419     -49.680
  C       82.814      -9.520     -50.152
  O       82.121      -9.215     -48.930
  C       81.813      -9.834     -51.287
  N       82.091     -11.098     -51.946
  C       81.939     -12.245     -51.160
  O       81.610     -12.146     -49.976
  N       82.188     -13.468     -51.728
  C       82.579     -13.537     -52.963
  N       82.815     -14.777     -53.469
  C       82.777     -12.350     -53.818
  C       82.520     -11.173     -53.251
  O       84.555      -5.179     -54.551
  O       86.160      -7.119     -55.016
  H       81.639     -10.033     -48.690
  H       85.405      -4.738     -54.372
  H       83.112     -12.458     -54.839
  H       82.639     -10.248     -53.804
  H       80.791      -9.878     -50.891
  H       83.491     -10.351     -49.930
  H       84.424      -8.648     -51.292
  H       81.814      -7.094     -50.959
  H       82.671     -15.568     -52.854
  H       82.401      -6.456     -53.370
  H       83.129     -14.946     -54.413
  H       83.423      -5.745     -52.135
  P       85.322      -7.808     -48.854
  C       86.396      -5.510     -49.245
  O       85.885      -6.417     -48.288
  O       86.369      -8.134     -50.024
  O       85.211      -8.928     -47.876
  H       87.196      -8.481     -49.646
  H       86.548      -4.541     -48.763
  H       85.693      -5.384     -50.071
  H       87.357      -5.869     -49.622
  H       82.728      -6.799     -57.497
  H       84.406      -6.319     -57.407
  H       83.188      -5.402     -56.553

 3  4  5  6  7  8  9  10  11  12  13  21  23  27  28  29  30  32 0
 6-311+G(2d,p)
 ****
 34  35 0
 6-311+G(2d,p)
 ****
 1  2  14  15  16  17  18  19  20  22  24  25  26 0
 3-21G
 ****
 31  33  36  37  38  39  40  41  42  43  44  45  46 0
 3-21G
 ****


