%nproc=1
%NoSave
%Mem=1900MB
#P OB98/GEN NMR

erre ene a

0 1
  C     -655.427     713.781    -396.432
  O     -654.512     712.749    -396.761
  P     -653.361     712.430    -395.700
  C     -654.536     710.368    -394.609
  O     -653.438     710.868    -395.365
  C     -654.782     708.894    -394.943
  O     -655.289     708.763    -396.280
  C     -653.523     708.041    -394.878
  O     -653.180     707.712    -393.546
  C     -653.927     706.835    -395.727
  O     -654.673     705.894    -394.939
  C     -654.826     707.487    -396.798
  N     -654.159     707.631    -398.076
  C     -654.771     707.014    -399.164
  O     -655.820     706.352    -399.055
  N     -654.138     707.125    -400.367
  C     -652.938     707.746    -400.585
  O     -652.402     707.777    -401.685
  C     -652.323     708.366    -399.404
  C     -652.935     708.272    -398.232
  O     -653.862     713.126    -394.349
  O     -651.995     712.904    -396.103
  H     -654.027     705.466    -394.341
  H     -653.101     713.479    -393.851
  H     -654.582     706.702    -401.171
  H     -651.367     708.862    -399.547
  H     -652.488     708.704    -397.332
  H     -655.739     706.880    -396.944
  H     -653.061     706.308    -396.136
  H     -652.691     708.570    -395.390
  H     -655.533     708.515    -394.239
  H     -655.423     710.956    -394.831
  H     -654.304     710.492    -393.542
  P     -651.607     707.604    -393.204
  C     -651.382     710.020    -392.270
  O     -651.375     708.643    -391.998
  O     -650.963     708.292    -394.496
  O     -651.165     706.200    -392.956
  H     -651.536     708.984    -394.860
  H     -652.083     710.293    -393.055
  H     -650.362     710.346    -392.579
  H     -651.644     710.570    -391.355
  H     -656.140     713.891    -397.222
  H     -654.896     714.700    -396.301
  H     -655.936     713.531    -395.525

 3  4  5  6  7  8  9  10  11  12  13  23  28  29  30  31  32 0
 6-311+G(2d,p)
 ****
 33  34 0
 6-311+G(2d,p)
 ****
 1  2  14  15  16  17  18  19  20  21  22  24  25  26 0
 3-21G
 ****
 27  35  36  37  38  39  40  41  42  43  44  45 0
 3-21G
 ****


