%nproc=1
%NoSave
%Mem=1900MB
#P OB98/GEN NMR

erre ene a

0 1
  C      560.246     330.074     913.304
  O      560.696     329.501     912.083
  P      562.125     329.986     911.525
  C      563.200     327.935     912.700
  O      563.217     329.347     912.520
  C      564.612     327.377     912.676
  O      565.174     327.534     911.357
  C      565.591     328.063     913.621
  O      565.465     327.596     914.950
  C      566.928     327.659     913.011
  O      567.276     326.339     913.462
  C      566.614     327.647     911.504
  N      569.775     329.470     907.998
  C      569.592     328.173     908.435
  N      570.339     327.225     907.833
  N      568.747     327.838     909.381
  C      568.042     328.885     909.862
  C      568.140     330.214     909.513
  C      569.108     330.579     908.503
  O      569.359     331.720     908.124
  N      567.246     330.984     910.216
  C      566.587     330.119     910.964
  N      567.057     328.836     910.803
  O      562.157     331.535     911.891
  O      562.343     329.751     910.069
  H      567.176     326.325     914.436
  H      562.752     332.016     911.285
  H      570.420     329.673     907.254
  H      565.769     330.376     911.629
  H      567.060     326.766     911.017
  H      567.741     328.324     913.302
  H      570.909     327.400     907.020
  H      565.477     329.152     913.565
  H      570.192     326.258     908.105
  H      564.566     326.299     912.897
  H      562.618     327.467     911.898
  H      562.716     327.704     913.665
  P      566.354     328.342     916.060
  C      564.933     330.519     916.169
  O      566.153     329.909     915.780
  O      567.854     328.048     915.596
  O      566.104     327.888     917.456
  H      568.464     328.084     916.358
  H      564.553     330.102     917.102
  H      564.189     330.381     915.367
  H      565.108     331.589     916.304
  H      559.290     329.667     913.558
  H      560.163     331.135     913.191
  H      560.946     329.852     914.082

 3  4  5  6  7  8  9  10  11  12  23  26  30  31  33  0
 6-311+G(2d,p)
 ****
 35  36  37  38 0
 6-311+G(2d,p)
 ****
 1  2  13  14  15  16  17  18  19  20  21  22  24  25  27  28  29 0
 3-21G
 ****
 32  34  39  40  41  42  43  44  45  46  47  48  49 0
 3-21G
 ****


