%nproc=1
%NoSave
%Mem=1900MB
#P OB98/GEN NMR

erre ene a

0 1
  C      872.276     556.782    -197.215
  O      871.137     557.066    -196.391
  P      870.561     558.560    -196.345
  C      869.813     558.622    -193.872
  O      869.396     558.611    -195.237
  C      868.625     558.869    -192.946
  O      868.009     560.142    -193.195
  C      867.500     557.852    -193.120
  O      867.870     556.605    -192.516
  C      866.339     558.558    -192.470
  O      866.371     558.404    -191.020
  C      866.611     560.024    -192.831
  N      865.749     560.528    -193.894
  C      865.579     561.927    -193.937
  O      866.134     562.651    -193.092
  N      864.791     562.473    -194.935
  C      864.221     561.683    -195.799
  N      863.456     562.274    -196.754
  C      864.372     560.223    -195.770
  C      865.135     559.713    -194.791
  O      870.211     559.155    -197.670
  O      871.749     559.387    -195.630
  H      867.255     558.717    -190.724
  H      871.725     560.302    -195.962
  H      863.873     559.600    -196.526
  H      865.286     558.645    -194.714
  H      866.466     560.687    -191.951
  H      865.371     558.179    -192.794
  H      867.293     557.702    -194.188
  H      868.986     558.858    -191.917
  H      863.379     563.289    -196.746
  H      870.564     559.393    -193.720
  H      863.016     561.759    -197.504
  H      870.299     557.658    -193.659
  P      866.944     555.328    -192.863
  C      867.211     554.087    -190.606
  O      867.487     554.080    -191.984
  O      867.422     554.950    -194.355
  O      865.464     555.571    -192.802
  H      866.660     554.603    -194.856
  H      867.350     553.073    -190.226
  H      866.196     554.410    -190.385
  H      867.919     554.751    -190.093
  H      872.528     555.746    -197.130
  H      873.105     557.378    -196.895
  H      872.045     557.010    -198.234

 3  4  5  6  7  8  9  10  11  12  13  23  27  28  29  30  32 0
 6-311+G(2d,p)
 ****
 34  35 0
 6-311+G(2d,p)
 ****
 1  2  14  15  16  17  18  19  20  21  22  24  25  26 0
 3-21G
 ****
 31  33  36  37  38  39  40  41  42  43  44  45  46 0
 3-21G
 ****


