%nproc=1
%NoSave
%Mem=1900MB
#P OB98/GEN NMR

erre ene a

0 1
  C      150.381     101.872     -21.973
  O      149.940     100.513     -21.910
  P      149.122      99.980     -23.184
  C      151.049      99.132     -24.698
  O      149.971      98.785     -23.840
  C      151.668      97.884     -25.337
  O      152.343      97.069     -24.330
  C      150.641      96.976     -26.036
  O      151.300      96.412     -27.179
  C      150.388      95.911     -24.979
  O      149.761      94.749     -25.496
  C      151.806      95.733     -24.447
  N      151.770      91.142     -22.219
  C      151.683      91.520     -23.513
  N      151.696      92.769     -24.028
  C      151.822      93.680     -23.046
  C      151.919      93.449     -21.682
  C      151.890      92.104     -21.272
  N      151.958      91.712     -19.954
  N      152.011      94.649     -20.990
  C      151.894      95.575     -21.924
  N      151.864      95.040     -23.180
  O      149.255     101.173     -24.242
  O      147.698      99.644     -22.883
  H      150.342      94.326     -26.161
  H      148.451     101.723     -24.239
  H      151.586      90.711     -24.231
  H      151.829      96.642     -21.745
  H      152.445      95.179     -25.147
  H      149.732      96.322     -24.203
  H      149.741      97.501     -26.364
  H      152.431      98.208     -26.059
  H      151.819      99.665     -24.136
  H      151.924      90.723     -19.757
  H      152.035      92.398     -19.219
  H      150.687      99.832     -25.461
  P      150.803      96.837     -28.644
  C      152.219      98.887     -29.265
  O      152.103      97.477     -29.341
  O      149.955      98.154     -28.297
  O      150.048      95.805     -29.411
  H      150.463      98.760     -27.731
  H      153.177      99.182     -29.700
  H      152.184      99.215     -28.223
  H      151.411      99.357     -29.834
  H      150.911     102.117     -21.077
  H      149.534     102.518     -22.074
  H      151.028     101.998     -22.816

 3  4  5  6  7  8  9  10  11  12  22  25  29  30  31  32 0
 6-311+G(2d,p)
 ****
 33  36  37 0
 6-311+G(2d,p)
 ****
 1  2  13  14  15  16  17  18  19  20  21  23  24  26 0
 3-21G
 ****
 27  28  34  35  38  39  40  41  42  43  44  45  46  47  48 0
 3-21G
 ****


