%nproc=1
%NoSave
%Mem=1900MB
#P OB98/GEN NMR

erre ene a

0 1
  C      -25.156     190.947     195.077
  O      -24.557     189.868     195.764
  H      -26.235     190.784     195.047
  H      -24.782     191.000     194.051
  H      -24.961     191.890     195.596
  P      -22.962     189.866     195.944
  C      -21.894     187.671     195.074
  O      -22.432     188.942     194.738
  C      -22.981     186.603     195.002
  O      -23.583     186.553     193.687
  C      -22.497     185.176     195.250
  O      -22.200     184.904     196.608
  C      -23.706     184.401     194.757
  O      -24.759     184.473     195.735
  C      -24.067     185.196     193.482
  N      -23.480     184.620     192.270
  C      -24.131     184.905     191.061
  O      -25.145     185.598     191.045
  N      -23.631     184.366     189.900
  C      -22.592     183.591     189.943
  N      -22.144     183.079     188.759
  C      -21.889     183.248     191.194
  C      -22.380     183.791     192.306
  O      -22.457     189.501     197.304
  O      -22.501     191.322     195.462
  H      -24.376     184.176     196.582
  H      -21.520     191.375     195.563
  H      -21.045     182.572     191.179
  H      -21.921     183.583     193.267
  H      -25.155     185.255     193.355
  H      -23.497     183.344     194.584
  H      -21.642     184.936     194.606
  H      -23.772     186.888     195.706
  H      -22.647     183.330     187.919
  H      -21.472     187.732     196.081
  H      -21.390     182.406     188.708
  H      -21.102     187.404     194.371
  P      -21.319     183.591     196.910
  C      -22.658     181.433     197.533
  O      -22.241     182.338     196.521
  O      -21.261     183.555     198.507
  O      -19.959     183.574     196.283
  H      -20.419     183.928     198.831
  H      -23.262     180.664     197.097
  H      -23.228     181.960     198.270
  H      -21.799     180.993     197.994

 6  7  8  9  10  11  12  13  14  15  16  26  30  31  32  33  35 0
 6-311+G(2d,p)
 ****
 37  38 0
 6-311+G(2d,p)
 ****
 1  2  3  4  5  17  18  19  20  21  22  23  24  25 0
 3-21G
 ****
 27  28  29  34  36  39  40  41  42  43  44  45  46 0
 3-21G
 ****


