%nproc=1
%NoSave
%Mem=1900MB
#P OB98/GEN NMR

erre ene a

0 1
  C     -147.646      57.391    -106.230
  O     -146.668      58.359    -105.890
  P     -146.609      59.717    -106.735
  C     -147.481      60.990    -104.640
  O     -147.601      60.768    -106.038
  C     -146.406      62.044    -104.354
  O     -146.858      63.338    -104.860
  C     -146.087      62.223    -102.864
  O     -144.690      62.548    -102.757
  C     -146.921      63.438    -102.492
  O     -146.478      64.081    -101.309
  C     -146.760      64.274    -103.766
  N     -147.754      65.339    -103.879
  C     -147.691      66.377    -102.951
  O     -146.852      66.443    -102.054
  N     -148.672      67.326    -103.045
  C     -149.740      67.295    -103.896
  O     -150.652      68.113    -103.852
  C     -149.761      66.177    -104.848
  C     -148.783      65.266    -104.804
  O     -147.355      59.332    -108.099
  O     -145.230      60.237    -106.980
  H     -147.091      64.817    -101.124
  H     -146.707      59.147    -108.800
  H     -148.634      68.090    -102.389
  H     -150.583      66.133    -105.556
  H     -148.780      64.420    -105.485
  H     -145.754      64.713    -103.811
  H     -147.962      63.134    -102.342
  H     -146.322      61.344    -102.254
  H     -145.500      61.776    -104.909
  H     -147.203      60.055    -104.150
  H     -148.447      61.307    -104.233
  P     -143.914      62.083    -101.430
  C     -143.677      59.735    -102.549
  O     -143.975      60.482    -101.391
  O     -144.955      62.537    -100.297
  O     -142.559      62.706    -101.278
  H     -145.875      62.326    -100.528
  H     -142.896      60.212    -103.152
  H     -144.578      59.620    -103.151
  H     -143.325      58.738    -102.248
  H     -147.555      56.548    -105.577
  H     -147.499      57.076    -107.242
  H     -148.622      57.818    -106.127

 3  4  5  6  7  8  9  10  11  12  13  23  28  29  30  31  32 0
 6-311+G(2d,p)
 ****
 33  34 0
 6-311+G(2d,p)
 ****
 1  2  14  15  16  17  18  19  20  21  22  24  25  26 0
 3-21G
 ****
 27  35  36  37  38  39  40  41  42  43  44  45 0
 3-21G
 ****


