%nproc=1
%NoSave
%Mem=1900MB
#P OB98/GEN NMR

erre ene a

0 1
  C      127.490     -79.027      -3.560
  O      127.789     -78.152      -2.496
  P      129.164     -78.181      -1.686
  C      128.153     -79.800       0.105
  O      129.212     -79.522      -0.807
  C      128.194     -81.265       0.564
  O      128.150     -82.118      -0.610
  C      129.501     -81.589       1.303
  O      129.332     -82.410       2.454
  C      130.397     -82.122       0.193
  O      131.487     -82.902       0.664
  C      129.391     -82.851      -0.693
  N      131.184     -85.897      -4.345
  C      130.699     -86.232      -3.098
  N      130.886     -87.513      -2.710
  N      130.121     -85.373      -2.295
  C      130.108     -84.107      -2.773
  C      130.557     -83.657      -3.994
  C      131.161     -84.623      -4.884
  O      131.708     -84.349      -5.954
  N      130.445     -82.297      -4.109
  C      129.959     -81.914      -2.944
  N      129.772     -82.976      -2.088
  O      129.585     -76.901      -1.039
  O      130.226     -78.509      -2.855
  H      131.966     -83.239      -0.117
  H      131.057     -78.040      -2.630
  H      131.694     -86.589      -4.887
  H      129.757     -80.889      -2.657
  H      129.206     -83.866      -0.340
  H      130.828     -81.261      -0.327
  H      131.455     -88.153      -3.243
  H      129.949     -80.675       1.711
  H      130.771     -87.717      -1.719
  H      127.304     -81.479       1.167
  H      127.220     -79.601      -0.439
  H      128.195     -79.125       0.961
  P      130.304     -82.596       3.705
  C      131.151     -84.892       2.933
  O      131.507     -83.567       3.277
  O      129.481     -83.489       4.743
  O      130.741     -81.322       4.350
  H      129.645     -83.170       5.654
  H      132.055     -85.510       2.934
  H      130.713     -84.907       1.930
  H      130.435     -85.304       3.652
  H      126.513     -78.809      -3.937
  H      127.520     -80.038      -3.210
  H      128.210     -78.898      -4.341

 3  4  5  6  7  8  9  10  11  12  23  26  30  31 0
 6-311+G(2d,p)
 ****
 33  35  36  37  38 0
 6-311+G(2d,p)
 ****
 1  2  13  14  15  16  17  18  19  20  21  22  24  25 0
 3-21G
 ****
 27  28  29  32  34  39  40  41  42  43  44  45  46  47  48  49 0
 3-21G
 ****


