%nproc=1
%NoSave
%Mem=1900MB
#P OB98/GEN NMR

erre ene a

0 1
  C     -299.727     425.416      97.449
  O     -300.095     425.057      96.133
  H     -298.738     425.007      97.660
  H     -300.440     424.996      98.165
  H     -299.688     426.503      97.559
  P     -301.428     425.685      95.505
  C     -300.815     427.632      93.924
  O     -301.039     426.236      94.050
  C     -300.951     428.075      92.461
  O     -300.834     429.530      92.404
  C     -299.873     427.498      91.523
  O     -300.468     427.377      90.223
  C     -298.840     428.610      91.557
  O     -297.854     428.465      90.566
  C     -299.774     429.824      91.469
  N     -299.160     431.111      91.771
  C     -298.373     431.700      90.788
  O     -298.162     431.213      89.678
  N     -297.811     432.905      91.120
  C     -297.968     433.567      92.300
  O     -297.465     434.659      92.530
  C     -298.806     432.892      93.304
  C     -299.359     431.718      92.997
  O     -302.163     426.652      96.371
  O     -302.325     424.401      95.165
  H     -303.012     424.294      95.850
  H     -297.212     429.204      90.643
  H     -297.241     433.347      90.417
  H     -298.942     433.384      94.256
  H     -299.992     431.201      93.713
  H     -300.231     429.871      90.471
  H     -298.307     428.596      92.513
  H     -299.500     426.522      91.844
  H     -301.959     427.823      92.109
  H     -299.803     427.850      94.282
  H     -301.535     428.170      94.548
  P     -300.969     425.982      89.606
  C     -303.441     425.960      90.370
  O     -302.537     426.113      89.284
  O     -300.625     424.794      90.438
  O     -300.287     425.892      88.160
  H     -300.189     424.955      87.904
  H     -304.445     426.070      90.017
  H     -303.239     426.706      91.110
  H     -303.319     424.988      90.801

 6  7  8  9  10  11  12  13  14  15  16  27  31  32  33  34  35 0
 6-311+G(2d,p)
 ****
 36  37 0
 6-311+G(2d,p)
 ****
 1  2  3  4  5  17  18  19  20  21  22  23  24  25 0
 3-21G
 ****
 26  28  29  30  38  39  40  41  42  43  44  45 0
 3-21G
 ****


