%nproc=1
%NoSave
%Mem=1900MB
#P OB98/GEN NMR

erre ene a

0 1
  C      758.343    -514.476    -121.403
  O      759.573    -515.128    -121.640
  H      757.695    -514.631    -122.269
  H      758.511    -513.404    -121.277
  H      757.844    -514.876    -120.518
  P      760.580    -515.339    -120.413
  C      759.878    -517.813    -120.180
  O      760.013    -516.552    -119.536
  C      758.773    -518.645    -119.521
  O      757.546    -517.876    -119.506
  C      758.484    -519.927    -120.315
  O      757.988    -520.968    -119.486
  C      757.385    -519.488    -121.268
  O      756.599    -520.576    -121.751
  C      756.608    -518.497    -120.400
  N      752.460    -515.567    -120.812
  C      752.697    -516.628    -119.962
  N      751.697    -516.948    -119.104
  N      753.803    -517.325    -119.965
  C      754.683    -516.942    -120.920
  C      754.551    -515.920    -121.834
  C      753.334    -515.130    -121.800
  O      753.069    -514.196    -122.542
  N      755.652    -515.837    -122.647
  C      756.445    -516.800    -122.235
  N      755.910    -517.487    -121.168
  O      760.302    -514.072    -119.472
  O      762.031    -515.441    -120.781
  H      757.100    -520.997    -122.477
  H      761.070    -513.903    -118.896
  H      751.603    -515.041    -120.747
  H      757.413    -517.040    -122.659
  H      755.862    -519.022    -119.790
  H      757.852    -519.017    -122.137
  H      750.772    -516.565    -119.210
  H      759.355    -520.285    -120.858
  H      751.725    -517.888    -118.709
  H      759.031    -518.853    -118.475
  H      760.843    -518.317    -120.090
  H      759.679    -517.676    -121.244
  P      759.040    -521.978    -118.818
  C      758.843    -521.127    -116.317
  O      759.625    -521.346    -117.472
  O      760.282    -521.960    -119.820
  O      758.519    -523.364    -118.605
  H      760.405    -522.830    -120.234
  H      759.453    -520.697    -115.550
  H      758.443    -522.059    -115.975
  H      758.040    -520.459    -116.551

 6  7  8  9  10  11  12  13  14  15  26  29  33  34 0
 6-311+G(2d,p)
 ****
 36  38  39  40  41 0
 6-311+G(2d,p)
 ****
 1  2  3  4  5  16  17  18  19  20  21  22  23  24  25 0
 3-21G
 ****
 27  28  30  31  32  35  37  42  43  44  45  46  47 0
 3-21G
 ****
 48  49 0
 3-21G
 ****


