%nproc=1
%NoSave
%Mem=1900MB
#P OB98/GEN NMR

erre ene a

0 1
  C      -80.064      32.988      93.207
  O      -78.783      32.961      93.815
  P      -78.007      31.574      94.050
  C      -76.114      32.847      95.263
  O      -77.096      31.824      95.345
  C      -75.565      33.152      96.654
  O      -76.616      33.686      97.482
  C      -75.025      31.939      97.400
  O      -73.750      31.561      96.907
  C      -75.050      32.448      98.836
  O      -73.912      33.287      99.088
  C      -76.338      33.298      98.848
  N      -77.474      32.598      99.437
  C      -77.411      32.353     100.812
  O      -76.447      32.725     101.479
  N      -78.468      31.718     101.416
  C      -79.487      31.339     100.708
  N      -80.533      30.776     101.369
  C      -79.568      31.526      99.248
  C      -78.541      32.160      98.686
  O      -77.271      31.059      92.860
  O      -79.125      30.577      94.600
  H      -73.163      32.693      99.287
  H      -79.611      30.096      93.887
  H      -80.431      31.181      98.699
  H      -78.533      32.355      97.621
  H      -76.172      34.229      99.402
  H      -75.049      31.649      99.583
  H      -75.714      31.091      97.299
  H      -74.784      33.918      96.554
  H      -80.511      30.827     102.382
  H      -76.583      33.750      94.857
  H      -81.454      30.721     100.952
  H      -75.316      32.529      94.585
  P      -73.573      30.054      96.388
  C      -71.098      30.078      97.162
  O      -72.358      29.437      97.238
  O      -72.975      30.242      94.916
  O      -74.829      29.249      96.390
  H      -73.675      30.120      94.248
  H      -70.464      29.690      97.963
  H      -71.203      31.159      97.289
  H      -70.626      29.858      96.202
  H      -80.407      34.000      93.142
  H      -80.750      32.416      93.796
  H      -80.001      32.569      92.225

 3  4  5  6  7  8  9  10  11  12  13  23  27  28  29  30  32 0
 6-311+G(2d,p)
 ****
 34  35 0
 6-311+G(2d,p)
 ****
 1  2  14  15  16  17  18  19  20  21  22  24  25  26 0
 3-21G
 ****
 31  33  36  37  38  39  40  41  42  43  44  45  46 0
 3-21G
 ****


