%nproc=1
%NoSave
%Mem=1900MB
#P OB98/GEN NMR

erre ene a

0 1
  C      252.728    -340.166    -715.980
  O      253.049    -340.305    -717.350
  H      252.868    -341.130    -715.487
  H      251.679    -339.863    -715.875
  H      253.381    -339.425    -715.507
  P      253.080    -338.956    -718.227
  C      255.638    -338.696    -718.774
  O      254.530    -338.315    -717.979
  C      256.661    -337.570    -718.857
  O      256.032    -336.409    -719.466
  C      257.218    -337.134    -717.493
  O      258.588    -336.767    -717.656
  C      256.400    -335.895    -717.166
  O      257.071    -335.042    -716.234
  C      256.190    -335.296    -718.562
  N      255.044    -334.390    -718.623
  C      255.318    -333.035    -718.854
  O      256.487    -332.655    -718.989
  N      254.282    -332.140    -718.884
  C      253.074    -332.551    -718.639
  N      252.087    -331.612    -718.661
  C      252.736    -333.960    -718.352
  C      253.758    -334.818    -718.363
  O      252.097    -338.005    -717.395
  O      252.700    -339.139    -719.659
  H      256.400    -334.486    -715.784
  H      252.248    -338.037    -716.437
  H      251.717    -334.248    -718.139
  H      253.607    -335.868    -718.167
  H      257.081    -334.736    -718.885
  H      255.438    -336.178    -716.730
  H      257.124    -337.918    -716.736
  H      257.476    -337.880    -719.528
  H      252.364    -330.654    -718.845
  H      255.308    -338.966    -719.782
  H      251.125    -331.805    -718.431
  H      256.089    -339.589    -718.318
  P      259.716    -337.907    -717.650
  C      260.193    -337.362    -720.136
  O      260.001    -338.380    -719.155
  O      259.513    -339.005    -716.664
  O      261.044    -337.079    -717.296
  H      261.572    -337.616    -716.670
  H      260.373    -337.814    -721.089
  H      261.033    -336.758    -719.864
  H      259.317    -336.750    -720.191

 6  7  8  9  10  11  12  13  14  15  16  26  30  31  32  33  35 0
 6-311+G(2d,p)
 ****
 37  38 0
 6-311+G(2d,p)
 ****
 1  2  3  4  5  17  18  19  20  21  22  23  24  25 0
 3-21G
 ****
 27  28  29  34  36  39  40  41  42  43  44  45  46 0
 3-21G
 ****


