%nproc=1
%NoSave
%Mem=1900MB
#P OB98/GEN NMR

erre ene a

0 1
  C      189.097     258.291      30.860
  O      189.102     259.163      29.749
  H      190.129     258.125      31.180
  H      188.661     257.329      30.581
  H      188.539     258.725      31.694
  P      187.704     259.717      29.195
  C      186.747     257.930      27.596
  O      186.777     258.440      28.920
  C      186.018     256.582      27.548
  O      186.835     255.588      28.241
  C      184.636     256.586      28.233
  O      183.828     255.617      27.550
  C      185.006     256.114      29.627
  O      183.883     255.767      30.397
  C      185.997     255.001      29.261
  N      186.806     254.495      30.363
  C      186.154     254.179      31.551
  O      184.944     254.291      31.736
  N      186.955     253.716      32.562
  C      188.305     253.529      32.497
  O      188.965     253.082      33.428
  C      188.937     253.888      31.220
  C      188.171     254.342      30.225
  O      187.794     260.689      28.067
  O      187.024     260.377      30.487
  H      187.124     261.346      30.450
  H      184.179     255.501      31.295
  H      186.499     253.477      33.429
  H      190.008     253.764      31.139
  H      188.607     254.606      29.267
  H      185.464     254.166      28.794
  H      185.505     256.918      30.173
  H      184.144     257.560      28.199
  H      185.942     256.258      26.504
  H      187.781     257.803      27.255
  H      186.244     258.652      26.945
  P      182.603     256.006      26.587
  C      180.655     255.707      28.266
  O      181.430     256.619      27.496
  O      182.155     254.894      25.697
  O      183.121     257.257      25.731
  H      182.644     257.290      24.880
  H      179.915     256.247      28.820
  H      181.294     255.180      28.944
  H      180.173     255.009      27.614

 6  7  8  9  10  11  12  13  14  15  16  27  31  32  33  34  35 0
 6-311+G(2d,p)
 ****
 36  37 0
 6-311+G(2d,p)
 ****
 1  2  3  4  5  17  18  19  20  21  22  23  24  25 0
 3-21G
 ****
 26  28  29  30  38  39  40  41  42  43  44  45 0
 3-21G
 ****


