%nproc=1
%NoSave
%Mem=1900MB
#P OB98/GEN NMR

erre ene a

0 1
  C     1012.841     471.338     473.174
  O     1012.230     472.591     473.245
  P     1012.369     473.416     474.647
  C     1014.287     474.940     473.744
  O     1012.939     474.873     474.235
  C     1014.352     475.830     472.514
  O     1013.557     475.239     471.432
  C     1013.835     477.245     472.681
  O     1014.795     478.098     473.277
  C     1013.574     477.634     471.236
  O     1014.819     477.997     470.592
  C     1013.036     476.315     470.620
  N     1008.855     477.669     468.004
  C     1010.163     477.956     467.842
  N     1011.226     477.572     468.581
  C     1010.818     476.848     469.641
  C     1009.489     476.498     469.965
  C     1008.511     476.936     469.101
  N     1007.161     476.627     469.266
  N     1009.483     475.760     471.134
  C     1010.732     475.644     471.478
  N     1011.594     476.262     470.599
  O     1013.608     472.702     475.345
  O     1011.148     473.415     475.487
  H     1014.704     477.806     469.638
  H     1013.559     472.845     476.318
  H     1010.406     478.571     466.967
  H     1011.090     475.093     472.329
  H     1013.398     476.154     469.621
  H     1012.902     478.485     471.142
  H     1012.898     477.245     473.237
  H     1015.410     475.823     472.167
  H     1014.640     473.939     473.517
  H     1006.552     476.836     468.512
  H     1006.918     475.928     469.965
  H     1014.922     475.363     474.566
  P     1014.246     479.395     474.047
  C     1014.230     477.874     476.165
  O     1014.596     479.134     475.584
  O     1012.637     479.205     473.955
  O     1014.699     480.673     473.454
  H     1012.209     480.056     474.020
  H     1014.812     477.747     477.096
  H     1014.504     477.044     475.496
  H     1013.182     477.852     476.377
  H     1012.672     470.913     472.207
  H     1012.427     470.696     473.923
  H     1013.893     471.444     473.338

 3  4  5  6  7  8  9  10  11  12  22  25  29  30  31  32 0
 6-311+G(2d,p)
 ****
 33  36  37 0
 6-311+G(2d,p)
 ****
 1  2  13  14  15  16  17  18  19  20  21  23  24  26 0
 3-21G
 ****
 27  28  34  35  38  39  40  41  42  43  44  45  46  47  48 0
 3-21G
 ****


