%nproc=1
%NoSave
%Mem=1900MB
#P OB98/GEN NMR

erre ene a

0 1
  C      331.997    -444.552     356.613
  O      330.697    -443.971     356.500
  P      330.376    -442.659     357.367
  C      329.493    -441.423     355.276
  O      330.383    -441.381     356.390
  C      329.529    -440.093     354.504
  O      329.171    -439.021     355.419
  C      330.904    -439.706     353.937
  O      331.238    -440.165     352.626
  C      330.771    -438.187     353.850
  O      330.092    -437.829     352.633
  C      329.908    -437.832     355.051
  N      330.871    -433.798     358.051
  C      330.033    -433.955     357.000
  N      329.842    -435.064     356.249
  C      330.600    -436.082     356.698
  C      331.491    -436.062     357.759
  C      331.615    -434.849     358.452
  N      332.471    -434.675     359.515
  N      332.094    -437.289     357.913
  C      331.590    -438.036     356.943
  N      330.677    -437.358     356.195
  O      331.149    -442.507     358.630
  O      328.812    -442.836     357.679
  H      329.814    -436.897     352.736
  H      328.626    -442.520     358.581
  H      329.451    -433.088     356.713
  H      331.864    -439.068     356.753
  H      329.164    -437.055     354.818
  H      331.745    -437.685     353.820
  H      331.703    -439.978     354.635
  H      328.784    -440.115     353.697
  H      328.476    -441.626     355.616
  H      332.537    -433.758     359.932
  H      333.081    -435.435     359.792
  H      329.794    -442.270     354.653
  P      332.471    -441.151     352.377
  C      330.536    -442.692     351.515
  O      331.821    -442.591     352.098
  O      333.517    -441.138     353.442
  O      332.993    -440.706     350.928
  H      332.382    -440.907     350.204
  H      330.371    -443.727     351.212
  H      330.452    -442.046     350.641
  H      329.776    -442.419     352.257
  H      332.059    -445.413     355.980
  H      332.171    -444.842     357.628
  H      332.735    -443.836     356.315

 3  4  5  6  7  8  9  10  11  12  22  25  29  30  31  32 0
 6-311+G(2d,p)
 ****
 33  36  37 0
 6-311+G(2d,p)
 ****
 1  2  13  14  15  16  17  18  19  20  21  23  24  26 0
 3-21G
 ****
 27  28  34  35  38  39  40  41  42  43  44  45  46  47  48 0
 3-21G
 ****


