%nproc=1
%NoSave
%Mem=1900MB
#P OB98/GEN NMR

erre ene a

0 1
  C      361.301    -168.234    -410.783
  O      360.073    -168.146    -411.477
  H      362.021    -168.772    -411.411
  H      361.165    -168.781    -409.849
  H      361.689    -167.231    -410.580
  P      358.871    -167.390    -410.733
  C      356.551    -168.157    -409.840
  O      357.872    -168.541    -410.215
  C      355.625    -169.374    -409.841
  O      355.527    -169.900    -411.191
  C      356.104    -170.520    -408.925
  O      354.955    -171.126    -408.306
  C      356.707    -171.510    -409.910
  O      356.737    -172.834    -409.387
  C      355.785    -171.317    -411.107
  N      356.884    -175.534    -413.644
  C      356.225    -175.354    -412.444
  N      355.803    -176.470    -411.807
  N      356.012    -174.185    -411.899
  C      356.466    -173.152    -412.655
  C      357.136    -173.197    -413.853
  C      357.388    -174.501    -414.434
  O      357.977    -174.719    -415.486
  N      357.459    -171.930    -414.281
  C      356.985    -171.126    -413.341
  N      356.378    -171.825    -412.341
  O      358.052    -166.708    -411.931
  O      359.275    -166.397    -409.693
  H      355.840    -173.047    -409.056
  H      357.620    -165.885    -411.634
  H      357.028    -176.452    -414.016
  H      357.061    -170.042    -413.348
  H      354.824    -171.834    -410.984
  H      357.738    -171.207    -410.148
  H      355.909    -177.400    -412.179
  H      356.811    -170.204    -408.161
  H      355.315    -176.371    -410.923
  H      354.617    -169.043    -409.556
  H      356.181    -167.414    -410.555
  H      356.578    -167.710    -408.839
  P      354.816    -170.988    -406.715
  C      355.355    -172.460    -404.639
  O      355.166    -172.414    -406.049
  O      353.225    -170.855    -406.500
  O      355.533    -169.815    -406.137
  H      353.005    -169.945    -406.245
  H      355.579    -173.463    -404.342
  H      354.462    -172.134    -404.149
  H      356.166    -171.817    -404.367

 6  7  8  9  10  11  12  13  14  15  26  29  33  34 0
 6-311+G(2d,p)
 ****
 36  38  39  40  41 0
 6-311+G(2d,p)
 ****
 1  2  3  4  5  16  17  18  19  20  21  22  23  24  25 0
 3-21G
 ****
 27  28  30  31  32  35  37  42  43  44  45  46  47 0
 3-21G
 ****
 48  49 0
 3-21G
 ****


