%nproc=1
%NoSave
%Mem=1900MB
#P OB98/GEN NMR

erre ene a

0 1
  C      -26.064     215.857    -141.907
  O      -25.800     214.724    -142.721
  P      -24.286     214.457    -143.182
  C      -24.895     214.917    -145.660
  O      -24.067     215.257    -144.556
  C      -24.118     214.991    -146.975
  O      -25.001     214.612    -148.066
  C      -23.556     216.376    -147.307
  O      -22.325     216.180    -148.014
  C      -24.590     216.945    -148.260
  O      -24.064     218.003    -149.058
  C      -24.976     215.687    -149.032
  N      -27.517     215.207    -153.443
  C      -26.225     214.975    -153.121
  N      -25.622     215.126    -151.921
  C      -26.497     215.567    -151.003
  C      -27.833     215.878    -151.194
  C      -28.350     215.676    -152.486
  N      -29.667     215.902    -152.815
  N      -28.400     216.327    -150.018
  C      -27.423     216.288    -149.133
  N      -26.264     215.811    -149.677
  O      -24.324     212.925    -143.643
  O      -23.254     214.685    -142.132
  H      -24.741     218.258    -149.714
  H      -23.807     212.378    -143.020
  H      -25.593     214.616    -153.930
  H      -27.504     216.592    -148.097
  H      -24.235     215.431    -149.801
  H      -25.441     217.340    -147.693
  H      -23.393     217.013    -146.431
  H      -23.313     214.247    -146.942
  H      -25.726     215.626    -145.706
  H      -29.989     215.605    -153.723
  H      -30.335     216.069    -152.068
  H      -25.301     213.911    -145.517
  P      -21.083     217.096    -147.584
  C      -21.522     218.600    -149.649
  O      -21.315     218.531    -148.251
  O      -19.862     216.480    -148.417
  O      -20.804     217.095    -146.115
  H      -19.024     216.637    -147.943
  H      -22.206     219.428    -149.865
  H      -21.951     217.673    -150.046
  H      -20.566     218.791    -150.144
  H      -27.110     215.900    -141.684
  H      -25.773     216.746    -142.427
  H      -25.508     215.779    -140.996

 3  4  5  6  7  8  9  10  11  12  22  25  29  30  31  32 0
 6-311+G(2d,p)
 ****
 33  36  37 0
 6-311+G(2d,p)
 ****
 1  2  13  14  15  16  17  18  19  20  21  23  24  26 0
 3-21G
 ****
 27  28  34  35  38  39  40  41  42  43  44  45  46  47  48 0
 3-21G
 ****


