%nproc=1
%NoSave
%Mem=1900MB
#P OB98/GEN NMR

erre ene a

0 1
  C      703.671     363.753    -860.210
  O      702.740     364.733    -859.810
  H      703.126     362.841    -860.479
  H      704.350     363.515    -859.382
  H      704.239     364.089    -861.076
  P      703.263     366.166    -859.314
  C      701.666     368.065    -859.986
  O      701.935     367.033    -859.039
  C      700.233     367.962    -860.523
  O      700.136     366.804    -861.403
  C      699.176     367.811    -859.426
  O      698.091     368.704    -859.669
  C      698.691     366.370    -859.586
  O      697.379     366.157    -859.084
  C      698.872     366.187    -861.104
  N      698.835     364.780    -861.487
  C      698.391     364.493    -862.783
  O      698.054     365.417    -863.532
  N      698.284     363.190    -863.173
  C      698.548     362.238    -862.335
  N      698.390     360.966    -862.771
  C      698.993     362.489    -860.945
  C      699.125     363.771    -860.594
  O      704.261     366.814    -860.219
  O      703.830     365.908    -857.839
  H      696.836     366.953    -859.293
  H      704.464     366.625    -857.612
  H      699.199     361.663    -860.279
  H      699.441     364.051    -859.593
  H      698.085     366.715    -861.657
  H      699.377     365.698    -859.052
  H      699.560     367.981    -858.421
  H      700.041     368.842    -861.142
  H      698.074     360.837    -863.731
  H      702.392     367.982    -860.803
  H      698.542     360.146    -862.208
  H      701.790     369.031    -859.483
  P      698.076     370.056    -858.805
  C      697.070     371.576    -860.656
  O      696.903     370.999    -859.365
  O      699.423     370.800    -859.265
  O      698.059     369.822    -857.328
  H      700.072     370.794    -858.538
  H      696.215     372.174    -860.893
  H      697.173     370.798    -861.384
  H      697.947     372.189    -860.662

 6  7  8  9  10  11  12  13  14  15  16  26  30  31  32  33  35 0
 6-311+G(2d,p)
 ****
 37  38 0
 6-311+G(2d,p)
 ****
 1  2  3  4  5  17  18  19  20  21  22  23  24  25 0
 3-21G
 ****
 27  28  29  34  36  39  40  41  42  43  44  45  46 0
 3-21G
 ****


