%nproc=1
%NoSave
%Mem=1900MB
#P OB98/GEN NMR

erre ene a

0 1
  C      -60.413     -55.741     -32.688
  O      -60.252     -55.895     -34.105
  P      -60.618     -54.747     -35.167
  C      -62.444     -55.958     -36.546
  O      -61.112     -55.459     -36.519
  C      -62.490     -57.346     -37.190
  O      -62.218     -58.368     -36.201
  C      -63.836     -57.747     -37.776
  O      -64.122     -57.068     -38.985
  C      -63.657     -59.256     -37.930
  O      -62.988     -59.582     -39.156
  C      -62.755     -59.603     -36.730
  N      -63.446     -60.357     -35.698
  C      -63.413     -61.750     -35.810
  O      -62.889     -62.284     -36.788
  N      -63.990     -62.501     -34.817
  C      -64.635     -61.916     -33.856
  N      -65.169     -62.711     -32.891
  C      -64.810     -60.453     -33.776
  C      -64.194     -59.743     -34.718
  O      -59.529     -53.748     -35.377
  O      -61.940     -54.049     -34.595
  H      -61.989     -53.130     -34.918
  H      -62.106     -59.162     -39.116
  H      -65.391     -60.008     -32.982
  H      -64.259     -58.659     -34.726
  H      -61.882     -60.174     -37.068
  H      -64.616     -59.786     -37.935
  H      -64.624     -57.547     -37.041
  H      -61.709     -57.391     -37.961
  H      -65.022     -63.709     -32.970
  H      -63.058     -55.273     -37.141
  H      -65.670     -62.355     -32.089
  H      -62.840     -55.985     -35.527
  P      -65.258     -55.937     -38.932
  C      -66.764     -56.730     -40.893
  O      -65.846     -55.767     -40.413
  O      -64.434     -54.584     -38.689
  O      -66.287     -56.143     -37.869
  H      -64.924     -54.008     -38.075
  H      -67.410     -56.256     -41.636
  H      -67.385     -57.133     -40.088
  H      -66.214     -57.544     -41.370
  H      -60.103     -56.638     -32.194
  H      -61.442     -55.548     -32.465
  H      -59.815     -54.922     -32.348

 3  4  5  6  7  8  9  10  11  12  13  24  27  28  29  30  32 0
 6-311+G(2d,p)
 ****
 34  35 0
 6-311+G(2d,p)
 ****
 1  2  14  15  16  17  18  19  20  21  22  23  25  26 0
 3-21G
 ****
 31  33  36  37  38  39  40  41  42  43  44  45  46 0
 3-21G
 ****


