%nproc=1
%NoSave
%Mem=1900MB
#P OB98/GEN NMR

erre ene a

0 1
  C      140.408     -49.110       4.514
  O      139.358     -48.531       3.764
  H      141.328     -49.058       3.924
  H      140.195     -50.157       4.742
  H      140.557     -48.551       5.443
  P      137.854     -48.731       4.289
  C      137.408     -50.117       2.158
  O      137.333     -50.079       3.582
  C      137.139     -51.525       1.628
  O      138.154     -52.445       2.079
  C      135.826     -52.129       2.105
  O      134.671     -51.490       1.615
  C      136.040     -53.607       1.816
  O      135.767     -53.941       0.455
  C      137.554     -53.759       2.105
  N      137.810     -54.444       3.368
  C      138.223     -55.767       3.270
  O      138.351     -56.364       2.200
  N      138.455     -56.408       4.457
  C      138.275     -55.880       5.701
  O      138.482     -56.516       6.729
  C      137.799     -54.488       5.743
  C      137.594     -53.842       4.591
  O      136.941     -47.556       4.103
  O      138.036     -49.170       5.816
  H      134.796     -53.941       0.352
  H      137.187     -49.086       6.316
  H      138.770     -57.366       4.408
  H      137.632     -54.039       6.712
  H      137.245     -52.811       4.596
  H      138.037     -54.336       1.304
  H      135.408     -54.244       2.439
  H      135.780     -52.031       3.198
  H      137.185     -51.490       0.534
  H      138.420     -49.810       1.869
  H      136.688     -49.409       1.735
  P      133.295     -51.410       2.420
  C      132.030     -52.786       0.589
  O      132.365     -52.634       1.964
  O      132.668     -50.058       2.540
  O      133.753     -51.868       3.898
  H      133.203     -51.369       4.538
  H      131.408     -53.648       0.467
  H      132.925     -52.907       0.015
  H      131.505     -51.917       0.252

 6  7  8  9  10  11  12  13  14  15  16  26  31  32  33  34  35 0
 6-311+G(2d,p)
 ****
 36  37 0
 6-311+G(2d,p)
 ****
 1  2  3  4  5  17  18  19  20  21  22  23  24  25 0
 3-21G
 ****
 27  28  29  30  38  39  40  41  42  43  44  45 0
 3-21G
 ****


