%nproc=1
%NoSave
%Mem=1900MB
#P OB98/GEN NMR

erre ene a

0 1
  C     -389.718      82.575    -134.574
  O     -389.055      83.360    -133.604
  H     -388.996      82.291    -135.346
  H     -390.521      83.149    -135.042
  H     -390.125      81.665    -134.125
  P     -389.855      83.801    -132.285
  C     -388.742      81.775    -131.143
  O     -389.944      82.506    -131.343
  C     -388.474      81.616    -129.647
  O     -389.640      81.076    -128.985
  C     -387.333      80.656    -129.326
  O     -386.080      81.261    -129.579
  C     -387.627      80.355    -127.862
  O     -387.172      81.421    -127.015
  C     -389.175      80.286    -127.866
  N     -389.683      78.914    -127.940
  C     -389.986      78.307    -126.726
  O     -389.842      78.864    -125.634
  N     -390.422      77.010    -126.800
  C     -390.490      76.256    -127.938
  O     -390.670      75.043    -127.934
  C     -390.230      76.972    -129.194
  C     -389.825      78.246    -129.139
  O     -391.150      84.506    -132.517
  O     -388.811      84.735    -131.506
  H     -389.042      85.673    -131.657
  H     -386.196      81.365    -126.997
  H     -390.601      76.545    -125.922
  H     -390.335      76.426    -130.126
  H     -389.599      78.786    -130.052
  H     -389.579      80.752    -126.956
  H     -387.138      79.442    -127.520
  H     -387.444      79.730    -129.907
  H     -388.275      82.610    -129.227
  H     -387.918      82.333    -131.604
  H     -388.830      80.799    -131.631
  P     -384.739      80.389    -129.654
  C     -384.823      80.137    -132.205
  O     -384.829      79.459    -130.956
  O     -384.383      79.668    -128.398
  O     -383.604      81.452    -130.048
  H     -382.869      81.387    -129.404
  H     -384.887      79.423    -132.999
  H     -383.917      80.698    -132.302
  H     -385.661      80.801    -132.255

 6  7  8  9  10  11  12  13  14  15  16  27  31  32  33  34  35 0
 6-311+G(2d,p)
 ****
 36  37 0
 6-311+G(2d,p)
 ****
 1  2  3  4  5  17  18  19  20  21  22  23  24  25 0
 3-21G
 ****
 26  28  29  30  38  39  40  41  42  43  44  45 0
 3-21G
 ****


