%nproc=1
%NoSave
%Mem=1900MB
#P OB98/GEN NMR

erre ene a

0 1
  C       71.921     -29.253     -30.193
  O       73.242     -29.195     -30.742
  P       74.271     -28.028     -30.349
  C       73.755     -26.561     -32.393
  O       73.792     -26.624     -30.971
  C       73.803     -25.126     -32.935
  O       75.090     -24.508     -32.661
  C       73.566     -24.996     -34.445
  O       72.929     -23.732     -34.638
  C       74.985     -24.968     -34.989
  O       75.078     -24.435     -36.302
  C       75.675     -24.127     -33.920
  N       80.110     -22.906     -36.167
  C       78.868     -22.397     -36.301
  N       77.746     -22.748     -35.642
  C       78.001     -23.704     -34.735
  C       79.220     -24.313     -34.479
  C       80.311     -23.885     -35.254
  N       81.571     -24.432     -35.156
  N       79.090     -25.276     -33.497
  C       77.812     -25.254     -33.177
  N       77.112     -24.319     -33.893
  O       75.703     -28.355     -30.625
  O       74.053     -27.826     -28.775
  H       76.021     -24.366     -36.537
  H       74.923     -27.772     -28.336
  H       78.758     -21.608     -37.039
  H       77.336     -25.903     -32.453
  H       75.481     -23.058     -34.068
  H       75.380     -25.991     -35.017
  H       72.965     -25.807     -34.864
  H       73.056     -24.541     -32.384
  H       72.836     -27.048     -32.738
  H       82.265     -24.123     -35.819
  H       81.709     -25.245     -34.575
  H       74.603     -27.130     -32.790
  P       71.425     -23.620     -35.177
  C       71.775     -24.560     -37.529
  O       71.230     -24.795     -36.244
  O       71.032     -22.263     -35.660
  O       70.519     -24.088     -33.941
  H       69.606     -23.769     -34.069
  H       71.129     -23.873     -38.082
  H       71.834     -25.507     -38.070
  H       72.780     -24.132     -37.455
  H       71.408     -30.105     -30.587
  H       71.387     -28.363     -30.454
  H       71.981     -29.334     -29.128

 3  4  5  6  7  8  9  10  11  12  22  25  29  30  31  32 0
 6-311+G(2d,p)
 ****
 33  36  37 0
 6-311+G(2d,p)
 ****
 1  2  13  14  15  16  17  18  19  20  21  23  24  26 0
 3-21G
 ****
 27  28  34  35  38  39  40  41  42  43  44  45  46  47  48 0
 3-21G
 ****


