%nproc=1
%NoSave
%Mem=1900MB
#P OB98/GEN NMR

erre ene a

0 1
  C      341.153     103.374    -144.031
  O      341.499     104.523    -143.286
  H      340.226     103.574    -144.577
  H      340.989     102.526    -143.362
  H      341.941     103.137    -144.749
  P      342.835     104.438    -142.403
  C      341.482     104.598    -140.194
  O      342.392     103.837    -140.977
  C      341.918     104.609    -138.729
  O      341.048     105.509    -137.986
  C      341.846     103.233    -138.051
  O      342.954     103.103    -137.154
  C      340.564     103.315    -137.241
  O      340.554     102.398    -136.152
  C      340.583     104.784    -136.832
  N      337.438     104.990    -132.908
  C      338.723     104.493    -133.001
  N      339.255     103.963    -131.878
  N      339.425     104.510    -134.103
  C      338.780     105.092    -135.142
  C      337.509     105.611    -135.182
  C      336.731     105.566    -133.959
  O      335.581     105.971    -133.820
  N      337.204     106.078    -136.437
  C      338.290     105.844    -137.151
  N      339.274     105.250    -136.410
  O      343.162     105.969    -142.070
  O      343.988     103.742    -143.045
  H      341.208     102.709    -135.491
  H      344.123     106.107    -141.969
  H      336.937     104.943    -132.038
  H      338.414     106.079    -138.200
  H      341.274     104.978    -136.001
  H      339.700     103.097    -137.882
  H      338.787     103.945    -130.986
  H      341.843     102.398    -138.756
  H      340.204     103.603    -131.921
  H      342.930     105.026    -138.668
  H      340.484     104.155    -140.275
  H      341.451     105.624    -140.578
  P      344.327     102.525    -137.749
  C      344.419     100.354    -136.330
  O      344.311     100.926    -137.626
  O      345.409     102.973    -136.656
  O      344.673     103.062    -139.100
  H      345.964     103.690    -137.014
  H      344.394      99.287    -136.408
  H      343.602     100.687    -135.724
  H      345.342     100.657    -135.882

 6  7  8  9  10  11  12  13  14  15  26  29  33  34 0
 6-311+G(2d,p)
 ****
 36  38  39  40  41 0
 6-311+G(2d,p)
 ****
 1  2  3  4  5  16  17  18  19  20  21  22  23  24  25 0
 3-21G
 ****
 27  28  30  31  32  35  37  42  43  44  45  46  47 0
 3-21G
 ****
 48  49 0
 3-21G
 ****


