%nproc=1
%NoSave
%Mem=1900MB
#P OB98/GEN NMR

erre ene a

0 1
  C       47.408    -189.433     -14.435
  O       47.240    -189.702     -13.054
  P       48.083    -188.810     -12.017
  C       50.104    -190.439     -11.902
  O       49.025    -189.827     -11.206
  C       50.882    -191.392     -10.992
  O       51.794    -192.175     -11.802
  C       51.697    -190.691      -9.902
  O       51.642    -191.500      -8.727
  C       53.111    -190.713     -10.450
  O       54.082    -190.627      -9.409
  C       53.110    -192.039     -11.229
  N       54.147    -192.076     -12.256
  C       55.449    -192.352     -11.830
  O       55.691    -192.474     -10.629
  N       56.450    -192.432     -12.766
  C       56.191    -192.153     -14.007
  N       57.215    -192.249     -14.897
  C       54.856    -191.736     -14.476
  C       53.888    -191.740     -13.563
  O       46.984    -188.383     -10.937
  O       48.769    -187.631     -12.627
  H       53.814    -189.900      -8.803
  H       47.183    -187.501     -10.568
  H       54.703    -191.478     -15.516
  H       52.872    -191.471     -13.822
  H       53.265    -192.886     -10.548
  H       53.260    -189.868     -11.134
  H       51.329    -189.685      -9.678
  H       50.168    -192.092     -10.540
  H       58.125    -192.522     -14.547
  H       50.791    -189.662     -12.248
  H       57.109    -192.050     -15.882
  H       49.718    -190.969     -12.778
  P       51.478    -190.753      -7.317
  C       53.868    -191.461      -6.701
  O       52.504    -191.496      -6.333
  O       50.070    -191.335      -6.811
  O       51.484    -189.262      -7.300
  H       49.820    -190.903      -5.973
  H       54.463    -191.880      -5.885
  H       54.190    -190.434      -6.883
  H       54.027    -192.069      -7.598
  H       46.791    -190.096     -15.005
  H       48.433    -189.579     -14.705
  H       47.126    -188.421     -14.638

 3  4  5  6  7  8  9  10  11  12  13  21  23  27  28  29  30  32 0
 6-311+G(2d,p)
 ****
 34  35 0
 6-311+G(2d,p)
 ****
 1  2  14  15  16  17  18  19  20  22  24  25  26 0
 3-21G
 ****
 31  33  36  37  38  39  40  41  42  43  44  45  46 0
 3-21G
 ****


