%nproc=1
%NoSave
%Mem=1900MB
#P OB98/GEN NMR

erre ene a

0 1
  C      534.966     593.288     272.079
  O      534.607     592.645     273.302
  P      534.411     593.581     274.592
  C      535.832     592.142     276.208
  O      534.548     592.668     275.908
  C      535.727     590.879     277.079
  O      535.552     591.238     278.484
  C      534.561     589.966     276.703
  O      534.969     588.613     276.950
  C      533.497     590.342     277.714
  O      532.502     589.319     277.835
  C      534.358     590.579     278.949
  N      532.374     590.564     283.655
  C      532.983     589.602     282.926
  N      533.463     589.675     281.669
  C      533.303     590.924     281.179
  C      532.694     592.002     281.798
  C      532.215     591.791     283.099
  N      531.564     592.760     283.829
  N      532.675     593.102     280.956
  C      533.263     592.685     279.851
  N      533.684     591.388     279.945
  O      532.851     593.946     274.539
  O      535.257     594.811     274.578
  H      531.915     589.556     278.581
  H      532.732     594.875     274.281
  H      533.089     588.640     283.419
  H      533.399     593.273     278.953
  H      534.655     589.641     279.442
  H      533.001     591.267     277.402
  H      534.213     590.071     275.670
  H      536.672     590.330     277.002
  H      536.432     592.892     276.728
  H      531.219     592.512     284.747
  H      531.393     593.657     283.409
  H      536.359     591.933     275.273
  P      535.111     587.664     275.665
  C      533.714     585.709     276.638
  O      534.980     586.165     276.200
  O      536.658     587.796     275.265
  O      534.212     588.030     274.533
  H      536.774     587.610     274.320
  H      533.573     584.679     276.299
  H      532.896     586.329     276.252
  H      533.689     585.723     277.734
  H      535.064     592.555     271.306
  H      535.897     593.800     272.205
  H      534.206     593.991     271.809

 3  4  5  6  7  8  9  10  11  12  22  25  29  30  31  32 0
 6-311+G(2d,p)
 ****
 33  36  37 0
 6-311+G(2d,p)
 ****
 1  2  13  14  15  16  17  18  19  20  21  23  24  26 0
 3-21G
 ****
 27  28  34  35  38  39  40  41  42  43  44  45  46  47  48 0
 3-21G
 ****


