%nproc=1
%NoSave
%Mem=1900MB
#P OB98/GEN NMR

erre ene a

0 1
  C     -368.910    -744.978    -125.115
  O     -369.625    -744.085    -124.290
  H     -368.183    -745.519    -124.498
  H     -368.363    -744.423    -125.889
  H     -369.590    -745.700    -125.582
  P     -370.861    -743.309    -124.960
  C     -372.647    -743.381    -123.035
  O     -371.694    -742.624    -123.773
  C     -372.936    -742.701    -121.702
  O     -371.777    -742.754    -120.825
  C     -373.234    -741.219    -121.811
  O     -374.501    -740.956    -122.391
  C     -373.127    -740.801    -120.344
  O     -374.311    -741.141    -119.618
  C     -371.925    -741.653    -119.877
  N     -370.698    -740.877    -119.765
  C     -370.004    -741.003    -118.551
  O     -370.431    -741.735    -117.670
  N     -368.865    -740.252    -118.372
  C     -368.434    -739.492    -119.312
  N     -367.301    -738.775    -119.069
  C     -369.112    -739.349    -120.623
  C     -370.234    -740.057    -120.771
  O     -371.820    -744.506    -125.420
  O     -370.493    -742.354    -126.051
  H     -374.488    -742.081    -119.796
  H     -372.034    -745.132    -124.699
  H     -368.708    -738.694    -121.388
  H     -370.792    -740.011    -121.694
  H     -372.136    -742.110    -118.903
  H     -372.987    -739.719    -120.241
  H     -372.438    -740.706    -122.373
  H     -373.754    -743.242    -121.207
  H     -366.862    -738.884    -118.152
  H     -372.292    -744.404    -122.878
  H     -366.884    -738.122    -119.719
  H     -373.567    -743.431    -123.640
  P     -374.700    -739.721    -123.400
  C     -377.072    -740.545    -123.981
  O     -376.285    -739.476    -123.480
  O     -374.036    -739.871    -124.719
  O     -374.199    -738.465    -122.543
  H     -374.690    -738.313    -121.715
  H     -378.103    -740.258    -123.984
  H     -376.943    -741.405    -123.358
  H     -376.764    -740.778    -124.979

 6  7  8  9  10  11  12  13  14  15  16  26  30  31  32  33  35 0
 6-311+G(2d,p)
 ****
 37  38 0
 6-311+G(2d,p)
 ****
 1  2  3  4  5  17  18  19  20  21  22  23  24  25 0
 3-21G
 ****
 27  28  29  34  36  39  40  41  42  43  44  45  46 0
 3-21G
 ****


