%nproc=1
%NoSave
%Mem=1900MB
#P OB98/GEN NMR

erre ene a

0 1
  C     -116.617    -893.340     550.817
  O     -115.486    -893.450     549.964
  H     -116.493    -894.050     551.650
  H     -117.535    -893.580     550.279
  H     -116.678    -892.330     551.229
  P     -115.547    -892.720     548.542
  C     -116.610    -893.280     546.255
  O     -116.502    -893.650     547.625
  C     -117.773    -893.990     545.571
  O     -117.576    -895.420     545.557
  C     -119.108    -893.800     546.283
  O     -119.618    -892.480     546.252
  C     -119.949    -894.930     545.687
  O     -120.497    -894.590     544.414
  C     -118.881    -896.040     545.520
  N     -119.003    -897.090     546.520
  C     -120.118    -897.930     546.410
  O     -120.973    -897.800     545.522
  N     -120.231    -898.910     547.343
  C     -119.391    -899.100     548.400
  O     -119.556    -900.000     549.226
  C     -118.251    -898.170     548.507
  C     -118.109    -897.220     547.566
  O     -114.216    -892.420     547.909
  O     -116.449    -891.430     548.802
  H     -119.756    -894.300     543.857
  H     -116.357    -890.770     548.071
  H     -121.018    -899.530     547.279
  H     -117.568    -898.300     549.336
  H     -117.282    -896.520     547.622
  H     -118.964    -896.510     544.526
  H     -120.779    -895.230     546.336
  H     -118.981    -894.050     547.348
  H     -117.825    -893.650     544.533
  H     -115.675    -893.570     545.751
  H     -116.729    -892.190     546.177
  P     -120.569    -891.870     547.367
  C     -123.143    -891.860     547.847
  O     -122.056    -892.460     547.169
  O     -120.438    -890.400     547.639
  O     -120.062    -892.660     548.694
  H     -120.160    -892.040     549.449
  H     -124.047    -892.377     547.600
  H     -123.226    -890.835     547.551
  H     -122.978    -891.914     548.903

 6  7  8  9  10  11  12  13  14  15  16  26  31  32  33  34  35 0
 6-311+G(2d,p)
 ****
 36  37 0
 6-311+G(2d,p)
 ****
 1  2  3  4  5  17  18  19  20  21  22  23  24  25 0
 3-21G
 ****
 27  28  29  30  38  39  40  41  42  43  44  45 0
 3-21G
 ****


