%nproc=1
%NoSave
%Mem=1900MB
#P OB98/GEN NMR

erre ene a

0 1
  C     -253.716     327.596     205.787
  O     -252.616     327.020     205.095
  P     -252.748     325.484     204.645
  C     -252.092     326.112     202.216
  O     -253.062     325.519     203.073
  C     -251.728     325.160     201.085
  O     -252.922     324.721     200.412
  C     -250.855     325.773     199.997
  O     -249.484     325.799     200.374
  C     -251.088     324.802     198.850
  O     -250.246     323.647     199.013
  C     -252.565     324.420     199.039
  N     -257.327     324.745     197.344
  C     -256.776     323.884     198.274
  N     -257.619     323.003     198.852
  N     -255.511     323.887     198.604
  C     -254.794     324.850     197.972
  C     -255.227     325.757     197.033
  C     -256.619     325.711     196.641
  O     -257.152     326.403     195.775
  N     -254.210     326.586     196.636
  C     -253.175     326.206     197.357
  N     -253.473     325.135     198.162
  O     -254.146     325.038     205.288
  O     -251.631     324.598     205.078
  H     -250.589     323.149     199.779
  H     -254.151     324.072     205.432
  H     -258.311     324.711     197.142
  H     -252.200     326.673     197.325
  H     -252.720     323.344     198.897
  H     -250.853     325.234     197.873
  H     -258.621     323.041     198.736
  H     -251.213     326.768     199.719
  H     -257.237     322.391     199.562
  H     -251.238     324.279     201.521
  H     -251.193     326.339     202.793
  H     -252.498     327.047     201.817
  P     -248.740     327.220     200.271
  C     -247.987     327.086     202.754
  O     -248.716     327.789     201.768
  O     -249.810     328.142     199.524
  O     -247.432     327.177     199.561
  H     -249.361     328.868     199.050
  H     -247.073     326.649     202.343
  H     -248.615     326.292     203.172
  H     -247.714     327.777     203.554
  H     -253.494     328.615     206.024
  H     -253.895     327.050     206.690
  H     -254.588     327.556     205.168

 3  4  5  6  7  8  9  10  11  12  23  26  30  31  33  0
 6-311+G(2d,p)
 ****
 35  36  37  38 0
 6-311+G(2d,p)
 ****
 1  2  13  14  15  16  17  18  19  20  21  22  24  25  27  28  29 0
 3-21G
 ****
 32  34  39  40  41  42  43  44  45  46  47  48  49 0
 3-21G
 ****


