%nproc=1
%NoSave
%Mem=1900MB
#P OB98/GEN NMR

erre ene a

0 1
  C      468.898    -224.381     -31.220
  O      470.161    -224.988     -30.921
  P      471.174    -224.398     -29.827
  C      471.055    -224.548     -27.254
  O      471.070    -225.265     -28.485
  C      471.055    -225.492     -26.048
  O      469.971    -226.435     -26.143
  C      472.315    -226.334     -25.896
  O      473.387    -225.566     -25.385
  C      471.819    -227.436     -24.966
  O      471.845    -227.007     -23.594
  C      470.368    -227.636     -25.449
  N      470.219    -228.812     -26.295
  C      469.866    -230.004     -25.651
  O      469.753    -230.040     -24.427
  N      469.675    -231.131     -26.412
  C      469.889    -231.089     -27.690
  N      469.677    -232.234     -28.395
  C      470.349    -229.878     -28.395
  C      470.490    -228.791     -27.641
  O      471.043    -222.923     -29.610
  O      472.636    -224.748     -30.385
  H      471.488    -226.097     -23.583
  H      473.262    -224.058     -30.095
  H      470.544    -229.894     -29.456
  H      470.815    -227.852     -28.083
  H      469.688    -227.729     -24.596
  H      472.425    -228.346     -25.030
  H      472.587    -226.771     -26.866
  H      470.889    -224.881     -25.146
  H      469.356    -233.047     -27.882
  H      470.148    -223.931     -27.230
  H      469.814    -232.311     -29.390
  H      471.928    -223.888     -27.219
  P      474.432    -224.887     -26.394
  C      474.234    -223.081     -28.208
  O      473.756    -223.550     -26.959
  O      475.012    -225.792     -27.427
  O      475.577    -224.318     -25.426
  H      476.431    -224.346     -25.896
  H      473.467    -222.449     -28.663
  H      474.457    -223.912     -28.883
  H      475.139    -222.487     -28.048
  H      468.400    -224.949     -31.978
  H      469.056    -223.382     -31.569
  H      468.295    -224.359     -30.337

 3  4  5  6  7  8  9  10  11  12  13  23  27  28  29  30  32 0
 6-311+G(2d,p)
 ****
 34  35 0
 6-311+G(2d,p)
 ****
 1  2  14  15  16  17  18  19  20  21  22  24  25  26 0
 3-21G
 ****
 31  33  36  37  38  39  40  41  42  43  44  45  46 0
 3-21G
 ****


