%nproc=1
%NoSave
%Mem=1900MB
#P OB98/GEN NMR

erre ene a

0 1
  C     -370.789      15.736     141.987
  O     -370.825      16.623     143.096
  P     -369.440      17.300     143.547
  C     -369.310      15.612     145.520
  O     -368.650      16.191     144.400
  C     -369.028      16.403     146.801
  O     -369.802      15.834     147.885
  C     -367.557      16.402     147.225
  O     -367.258      17.690     147.770
  C     -367.507      15.373     148.333
  O     -366.409      15.601     149.215
  C     -368.895      15.544     148.967
  N     -369.314      14.364     149.714
  C     -369.480      14.515     151.096
  O     -369.200      15.588     151.639
  N     -369.908      13.439     151.837
  C     -370.050      12.284     151.261
  N     -370.478      11.252     152.034
  C     -369.766      12.056     149.831
  C     -369.426      13.127     149.123
  O     -369.906      18.355     144.659
  O     -368.670      17.942     142.440
  H     -366.520      15.015     150.001
  H     -369.322      19.136     144.659
  H     -369.863      11.062     149.411
  H     -369.220      13.058     148.063
  H     -368.906      16.408     149.648
  H     -367.402      14.366     147.906
  H     -366.877      16.189     146.391
  H     -369.380      17.429     146.653
  H     -370.655      11.433     153.014
  H     -368.944      14.592     145.661
  H     -370.617      10.313     151.677
  H     -370.388      15.568     145.325
  P     -366.602      18.779     146.792
  C     -364.297      18.374     147.845
  O     -365.065      18.345     146.657
  O     -366.492      20.053     147.760
  O     -367.321      19.123     145.528
  H     -366.158      20.822     147.259
  H     -363.318      17.929     147.640
  H     -364.788      17.798     148.635
  H     -364.150      19.409     148.173
  H     -371.773      15.361     141.798
  H     -370.132      14.920     142.204
  H     -370.435      16.259     141.123

 3  4  5  6  7  8  9  10  11  12  13  21  23  27  28  29  30  32 0
 6-311+G(2d,p)
 ****
 34  35 0
 6-311+G(2d,p)
 ****
 1  2  14  15  16  17  18  19  20  22  24  25  26 0
 3-21G
 ****
 31  33  36  37  38  39  40  41  42  43  44  45  46 0
 3-21G
 ****


