%nproc=1
%NoSave
%Mem=1900MB
#P OB98/GEN NMR

erre ene a

0 1
  C      485.504      24.579     155.845
  O      486.160      24.372     154.582
  P      485.468      23.640     153.334
  C      487.694      22.418     152.812
  O      486.291      22.295     153.026
  C      488.278      21.120     152.253
  O      488.397      20.129     153.296
  C      487.430      20.437     151.187
  O      487.472      21.110     149.941
  C      488.052      19.038     151.169
  O      489.205      18.988     150.323
  C      488.464      18.839     152.638
  N      487.645      17.858     153.337
  C      488.248      16.622     153.605
  O      489.377      16.379     153.190
  N      487.541      15.695     154.327
  C      486.308      15.936     154.657
  N      485.659      14.983     155.385
  C      485.595      17.166     154.276
  C      486.317      18.077     153.622
  O      485.290      24.519     152.141
  O      484.058      23.112     153.883
  H      483.425      23.043     153.141
  H      489.939      19.412     150.815
  H      484.553      17.306     154.528
  H      485.874      19.017     153.315
  H      489.519      18.544     152.699
  H      487.349      18.280     150.797
  H      486.391      20.367     151.540
  H      489.281      21.339     151.858
  H      486.182      14.153     155.641
  H      488.175      22.638     153.776
  H      484.707      15.075     155.710
  H      487.884      23.259     152.136
  P      486.211      22.032     149.568
  C      484.642      20.145     148.714
  O      484.896      21.130     149.702
  O      486.370      22.253     147.989
  O      486.157      23.329     150.299
  H      486.116      23.172     147.760
  H      484.053      19.341     149.160
  H      485.571      19.718     148.317
  H      484.072      20.592     147.898
  H      486.168      25.086     156.513
  H      485.231      23.633     156.264
  H      484.625      25.171     155.698

 3  4  5  6  7  8  9  10  11  12  13  24  27  28  29  30  32 0
 6-311+G(2d,p)
 ****
 34  35 0
 6-311+G(2d,p)
 ****
 1  2  14  15  16  17  18  19  20  21  22  23  25  26 0
 3-21G
 ****
 31  33  36  37  38  39  40  41  42  43  44  45  46 0
 3-21G
 ****


