%nproc=1
%NoSave
%Mem=1900MB
#P OB98/GEN NMR

erre ene a

0 1
  C      -37.780      19.805     -52.084
  O      -36.808      19.187     -52.907
  H      -37.268      20.303     -51.257
  H      -38.464      19.058     -51.674
  H      -38.339      20.553     -52.651
  P      -37.306      18.348     -54.177
  C      -36.682      20.180     -55.887
  O      -37.728      19.427     -55.287
  C      -36.422      19.687     -57.308
  O      -37.594      19.869     -58.126
  C      -35.282      20.407     -58.025
  O      -34.028      19.874     -57.634
  C      -35.623      20.096     -59.473
  O      -35.242      18.740     -59.779
  C      -37.158      20.221     -59.469
  N      -39.676      23.008     -62.882
  C      -39.227      21.704     -62.961
  N      -39.454      21.061     -64.128
  N      -38.601      21.089     -61.992
  C      -38.381      21.876     -60.913
  C      -38.762      23.185     -60.723
  C      -39.513      23.832     -61.779
  O      -39.950      24.979     -61.738
  N      -38.279      23.683     -59.538
  C      -37.655      22.659     -58.989
  N      -37.679      21.539     -59.789
  O      -38.353      17.310     -53.910
  O      -35.967      17.710     -54.778
  H      -35.253      18.651     -60.750
  H      -35.803      16.823     -54.410
  H      -40.146      23.431     -63.665
  H      -37.173      22.670     -58.019
  H      -37.629      19.516     -60.163
  H      -35.104      20.744     -60.181
  H      -39.794      21.525     -64.958
  H      -35.333      21.491     -57.873
  H      -39.081      20.125     -64.225
  H      -36.231      18.606     -57.258
  H      -35.787      20.052     -55.269
  H      -36.941      21.244     -55.910
  P      -32.671      20.723     -57.778
  C      -32.228      20.920     -55.236
  O      -32.573      21.594     -56.435
  O      -32.555      21.507     -59.039
  O      -31.509      19.650     -57.563
  H      -31.270      19.169     -58.395
  H      -32.200      21.621     -54.428
  H      -31.266      20.465     -55.347
  H      -32.957      20.165     -55.029

 6  7  8  9  10  11  12  13  14  15  26  29  33  34 0
 6-311+G(2d,p)
 ****
 36  38  39  40  41 0
 6-311+G(2d,p)
 ****
 1  2  3  4  5  16  17  18  19  20  21  22  23  24  25 0
 3-21G
 ****
 27  28  30  31  32  35  37  42  43  44  45  46  47 0
 3-21G
 ****
 48  49 0
 3-21G
 ****


