%nproc=1
%NoSave
%Mem=1900MB
#P OB98/GEN NMR

erre ene a

0 1
  C      -13.266       6.009    -153.924
  O      -13.544       7.412    -153.967
  P      -13.691       8.091    -155.412
  C      -16.286       8.263    -155.507
  O      -15.043       8.950    -155.436
  C      -17.293       9.078    -156.321
  O      -18.552       8.388    -156.435
  C      -17.628      10.418    -155.690
  O      -16.595      11.353    -155.927
  C      -18.945      10.770    -156.373
  O      -18.734      11.514    -157.584
  C      -19.560       9.385    -156.680
  N      -20.763       9.121    -155.909
  C      -21.905       9.833    -156.293
  O      -21.848      10.641    -157.221
  N      -23.070       9.624    -155.602
  C      -23.088       8.801    -154.599
  N      -24.270       8.642    -153.949
  C      -21.897       8.054    -154.143
  C      -20.780       8.261    -154.835
  O      -14.023       6.851    -156.368
  O      -12.468       8.822    -155.864
  H      -18.179      10.941    -158.152
  H      -13.647       6.998    -157.254
  H      -21.959       7.385    -153.298
  H      -19.857       7.754    -154.572
  H      -19.819       9.311    -157.744
  H      -19.576      11.390    -155.729
  H      -17.792      10.294    -154.612
  H      -16.882       9.230    -157.329
  H      -25.065       9.172    -154.285
  H      -16.676       8.087    -154.502
  H      -24.396       8.034    -153.152
  H      -16.121       7.278    -155.956
  P      -16.357      12.495    -154.832
  C      -15.136      11.228    -152.961
  O      -14.999      12.079    -154.083
  O      -17.463      12.136    -153.726
  O      -16.459      13.912    -155.283
  H      -17.485      12.823    -153.038
  H      -14.146      10.859    -152.681
  H      -15.775      10.374    -153.200
  H      -15.553      11.787    -152.120
  H      -13.194       5.691    -152.905
  H      -12.341       5.813    -154.425
  H      -14.055       5.474    -154.410

 3  4  5  6  7  8  9  10  11  12  13  21  23  27  28  29  30  32 0
 6-311+G(2d,p)
 ****
 34  35 0
 6-311+G(2d,p)
 ****
 1  2  14  15  16  17  18  19  20  22  24  25  26 0
 3-21G
 ****
 31  33  36  37  38  39  40  41  42  43  44  45  46 0
 3-21G
 ****


