%nproc=1
%NoSave
%Mem=1900MB
#P OB98/GEN NMR

erre ene a

0 1
  C      -33.301     445.247    -463.329
  O      -32.246     445.074    -464.259
  P      -32.254     445.992    -465.573
  C      -33.965     446.446    -467.485
  O      -33.548     445.589    -466.427
  C      -33.982     445.653    -468.801
  O      -35.030     444.664    -468.782
  C      -34.261     446.521    -470.025
  O      -33.101     447.227    -470.434
  C      -34.725     445.483    -471.039
  O      -33.606     444.843    -471.673
  C      -35.486     444.484    -470.144
  N      -36.938     444.617    -470.255
  C      -37.556     443.782    -471.174
  O      -36.935     442.985    -471.877
  N      -38.912     443.916    -471.289
  C      -39.681     444.829    -470.628
  O      -40.892     444.942    -470.818
  C      -38.973     445.710    -469.687
  C      -37.653     445.571    -469.552
  O      -31.034     445.432    -466.440
  O      -32.123     447.459    -465.305
  H      -33.243     445.491    -472.313
  H      -30.595     446.166    -466.915
  H      -39.384     443.304    -471.930
  H      -39.556     446.439    -469.147
  H      -37.102     446.213    -468.874
  H      -35.218     443.458    -470.413
  H      -35.331     445.924    -471.832
  H      -35.092     447.213    -469.812
  H      -33.023     445.137    -468.911
  H      -33.274     447.283    -467.571
  H      -34.959     446.836    -467.257
  P      -33.326     448.520    -471.366
  C      -34.588     448.869    -473.631
  O      -34.112     447.968    -472.656
  O      -31.834     448.798    -471.867
  O      -33.956     449.662    -470.636
  H      -31.319     447.969    -471.961
  H      -33.901     449.717    -473.764
  H      -35.565     449.242    -473.334
  H      -34.679     448.347    -474.583
  H      -33.167     444.574    -462.508
  H      -34.236     445.044    -463.808
  H      -33.297     446.254    -462.968

 3  4  5  6  7  8  9  10  11  12  13  23  28  29  30  31  32 0
 6-311+G(2d,p)
 ****
 33  34 0
 6-311+G(2d,p)
 ****
 1  2  14  15  16  17  18  19  20  21  22  24  25  26 0
 3-21G
 ****
 27  35  36  37  38  39  40  41  42  43  44  45 0
 3-21G
 ****


