%nproc=1
%NoSave
%Mem=1900MB
#P OB98/GEN NMR

erre ene a

0 1
  C        2.455    -704.909    -390.794
  O        3.846    -704.810    -390.574
  H        2.093    -705.834    -390.339
  H        2.234    -704.936    -391.865
  H        1.935    -704.064    -390.331
  P        4.640    -703.591    -391.246
  C        5.344    -701.215    -390.506
  O        4.791    -702.460    -390.115
  C        5.258    -700.192    -389.365
  O        3.861    -700.008    -389.001
  C        6.002    -700.629    -388.088
  O        6.444    -699.439    -387.424
  C        4.885    -701.293    -387.303
  O        5.246    -701.482    -385.954
  C        3.733    -700.335    -387.602
  N        2.433    -700.913    -387.292
  C        2.020    -700.836    -385.961
  O        2.751    -700.311    -385.116
  N        0.810    -701.376    -385.607
  C        0.102    -702.002    -386.491
  N       -1.081    -702.531    -386.077
  C        0.527    -702.157    -387.900
  C        1.686    -701.586    -388.230
  O        4.101    -703.103    -392.549
  O        6.136    -704.141    -391.406
  H        5.227    -700.635    -385.462
  H        6.308    -704.366    -392.338
  H       -0.087    -702.706    -388.600
  H        2.080    -701.652    -389.239
  H        3.840    -699.399    -387.034
  H        4.668    -702.288    -387.710
  H        6.851    -701.288    -388.291
  H        5.625    -699.225    -389.724
  H       -1.325    -702.411    -385.099
  H        4.774    -700.856    -391.371
  H       -1.699    -703.055    -386.672
  H        6.388    -701.340    -390.807
  P        7.993    -699.146    -387.116
  C        9.780    -697.464    -387.917
  O        8.586    -698.167    -388.240
  O        8.816    -700.377    -386.885
  O        7.986    -698.229    -385.798
  H        8.792    -698.406    -385.279
  H       10.068    -696.850    -388.745
  H       10.560    -698.165    -387.704
  H        9.610    -696.848    -387.059

 6  7  8  9  10  11  12  13  14  15  16  26  30  31  32  33  35 0
 6-311+G(2d,p)
 ****
 37  38 0
 6-311+G(2d,p)
 ****
 1  2  3  4  5  17  18  19  20  21  22  23  24  25 0
 3-21G
 ****
 27  28  29  34  36  39  40  41  42  43  44  45  46 0
 3-21G
 ****


