%nproc=1
%NoSave
%Mem=1900MB
#P OB98/GEN NMR

erre ene a

0 1
  C     -305.069    -554.785    -527.782
  O     -304.127    -554.273    -528.706
  H     -305.811    -554.009    -527.577
  H     -304.570    -555.057    -526.847
  H     -305.576    -555.654    -528.207
  P     -302.924    -555.253    -529.117
  C     -303.102    -555.111    -531.686
  O     -302.405    -554.672    -530.525
  C     -302.517    -554.455    -532.938
  O     -302.678    -553.022    -532.829
  C     -301.026    -554.742    -533.130
  O     -300.758    -554.916    -534.524
  C     -300.350    -553.474    -532.639
  O     -299.072    -553.274    -533.233
  C     -301.386    -552.413    -533.003
  N     -299.103    -547.870    -532.549
  C     -299.143    -548.763    -533.554
  N     -299.792    -549.945    -533.602
  C     -300.492    -550.149    -532.469
  C     -300.545    -549.329    -531.359
  C     -299.804    -548.138    -531.414
  N     -299.737    -547.227    -530.387
  N     -301.335    -549.898    -530.375
  C     -301.760    -551.038    -530.894
  N     -301.260    -551.240    -532.153
  O     -303.239    -556.710    -529.104
  O     -301.770    -554.789    -528.108
  H     -298.897    -552.313    -533.276
  H     -301.719    -553.821    -528.049
  H     -298.576    -548.501    -534.447
  H     -302.416    -551.753    -530.399
  H     -301.297    -552.076    -534.036
  H     -300.215    -553.525    -531.552
  H     -300.691    -555.618    -532.577
  H     -303.101    -554.775    -533.810
  H     -304.166    -554.854    -531.605
  H     -299.191    -546.394    -530.518
  H     -300.268    -547.409    -529.539
  H     -303.009    -556.195    -531.747
  P     -300.017    -556.255    -534.999
  C     -301.520    -557.322    -536.812
  O     -300.375    -556.517    -536.543
  O     -300.168    -557.437    -534.096
  O     -298.484    -555.794    -535.080
  H     -297.919    -556.528    -534.779
  H     -301.647    -557.419    -537.870
  H     -302.388    -556.861    -536.389
  H     -301.384    -558.291    -536.379

 6  7  8  9  10  11  12  13  14  15  25  28  32  33  34  35 0
 6-311+G(2d,p)
 ****
 36  39  40 0
 6-311+G(2d,p)
 ****
 1  2  3  4  5  16  17  18  19  20  21  22  23  24 0
 3-21G
 ****
 26  27  29  30  31  37  38  41  42  43  44  45  46  47 0
 3-21G
 ****
 48 0
 3-21G
 ****


