%nproc=1
%NoSave
%Mem=1900MB
#P OB98/GEN NMR

erre ene a

0 1
  C     -541.675    -340.867     951.162
  O     -540.956    -340.030     950.267
  P     -541.618    -339.024     949.214
  C     -540.474    -339.788     946.964
  O     -540.601    -338.819     948.006
  C     -539.006    -339.924     946.514
  O     -538.708    -338.860     945.570
  C     -538.007    -339.794     947.674
  O     -536.943    -340.727     947.620
  C     -537.643    -338.318     947.639
  O     -536.429    -338.016     948.304
  C     -537.678    -338.019     946.138
  N     -535.794    -333.608     944.387
  C     -535.129    -334.792     944.677
  N     -533.792    -334.794     944.496
  N     -535.730    -335.865     945.122
  C     -537.057    -335.689     945.347
  C     -537.815    -334.569     945.111
  C     -537.155    -333.400     944.573
  O     -537.680    -332.336     944.281
  N     -539.133    -334.785     945.453
  C     -539.159    -336.007     945.899
  N     -537.922    -336.614     945.838
  O     -542.248    -337.805     949.780
  O     -542.793    -339.908     948.534
  H     -535.695    -338.333     947.762
  H     -543.513    -339.282     948.303
  H     -535.288    -332.816     944.032
  H     -540.044    -336.521     946.248
  H     -536.730    -338.269     945.657
  H     -538.444    -337.767     948.152
  H     -533.258    -333.977     944.268
  H     -538.493    -340.021     948.628
  H     -533.297    -335.584     944.912
  H     -538.893    -340.887     945.991
  H     -541.089    -339.432     946.136
  H     -540.886    -340.748     947.298
  P     -536.799    -342.130     948.375
  C     -535.356    -341.509     950.403
  O     -535.387    -342.157     949.133
  O     -536.592    -343.206     947.208
  O     -537.968    -342.499     949.235
  H     -537.334    -343.856     947.235
  H     -534.295    -341.378     950.688
  H     -535.827    -342.151     951.157
  H     -535.843    -340.551     950.363
  H     -540.985    -341.435     951.751
  H     -542.299    -341.533     950.604
  H     -542.282    -340.264     951.805

 3  4  5  6  7  8  9  10  11  12  23  26  30  31 0
 6-311+G(2d,p)
 ****
 33  35  36  37  38 0
 6-311+G(2d,p)
 ****
 1  2  13  14  15  16  17  18  19  20  21  22  24  25 0
 3-21G
 ****
 27  28  29  32  34  39  40  41  42  43  44  45  46  47  48  49 0
 3-21G
 ****


