%nproc=1
%NoSave
%Mem=1900MB
#P OB98/GEN NMR

erre ene a

0 1
  C       62.017       3.413    -123.425
  O       63.324       3.808    -122.977
  P       63.459       4.701    -121.647
  C       63.521       2.634    -120.045
  O       64.156       3.818    -120.504
  C       64.413       1.919    -119.026
  O       63.644       0.962    -118.262
  C       65.549       1.115    -119.641
  O       66.615       1.944    -120.070
  C       65.924       0.193    -118.487
  O       66.802       0.858    -117.562
  C       64.552      -0.077    -117.837
  N       64.031      -1.403    -118.153
  C       63.217      -1.993    -117.193
  O       62.980      -1.478    -116.101
  N       62.709      -3.222    -117.514
  C       62.984      -3.933    -118.648
  O       62.512      -5.040    -118.871
  C       63.915      -3.294    -119.588
  C       64.392      -2.081    -119.300
  O       61.940       4.766    -121.135
  O       64.009       6.075    -121.842
  H       66.374       1.706    -117.332
  H       61.801       5.589    -120.631
  H       62.092      -3.654    -116.845
  H       64.178      -3.834    -120.488
  H       65.081      -1.595    -119.985
  H       64.627       0.018    -116.747
  H       66.440      -0.711    -118.825
  H       65.170       0.510    -120.473
  H       64.807       2.672    -118.330
  H       63.343       1.968    -120.894
  H       62.558       2.896    -119.597
  P       67.461       1.434    -121.336
  C       65.696       1.571    -123.260
  O       66.799       2.157    -122.603
  O       66.981      -0.090    -121.428
  O       68.932       1.615    -121.168
  H       66.054      -0.200    -121.154
  H       65.055       1.026    -122.563
  H       66.058       0.887    -124.032
  H       65.109       2.362    -123.735
  H       62.107       2.828    -124.316
  H       61.431       4.285    -123.628
  H       61.540       2.832    -122.664

 3  4  5  6  7  8  9  10  11  12  13  23  28  29  30  31  32 0
 6-311+G(2d,p)
 ****
 33  34 0
 6-311+G(2d,p)
 ****
 1  2  14  15  16  17  18  19  20  21  22  24  25  26 0
 3-21G
 ****
 27  35  36  37  38  39  40  41  42  43  44  45 0
 3-21G
 ****


