%nproc=1
%NoSave
%Mem=1900MB
#P OB98/GEN NMR

erre ene a

0 1
  C      -91.851    -530.518       1.187
  O      -91.485    -531.888       1.435
  P      -90.878    -532.764       0.234
  C      -88.690    -532.059      -1.022
  O      -89.291    -532.529       0.178
  C      -87.175    -531.947      -0.844
  O      -86.845    -530.804      -0.021
  C      -86.533    -533.137      -0.143
  O      -86.400    -534.251      -1.007
  C      -85.197    -532.543       0.294
  O      -84.245    -532.574      -0.784
  C      -85.587    -531.091       0.632
  N      -85.669    -530.850       2.071
  C      -84.633    -530.108       2.633
  O      -83.661    -529.716       1.991
  N      -84.736    -529.862       3.976
  C      -85.717    -530.332       4.804
  O      -85.743    -530.092       6.006
  C      -86.738    -531.175       4.168
  C      -86.665    -531.396       2.854
  O      -91.377    -531.953      -1.056
  O      -91.332    -534.186       0.173
  H      -83.432    -532.148      -0.452
  H      -91.470    -532.566      -1.811
  H      -84.014    -529.300       4.396
  H      -87.520    -531.586       4.794
  H      -87.414    -532.018       2.368
  H      -84.858    -530.395       0.203
  H      -84.752    -533.088       1.131
  H      -87.115    -533.401       0.747
  H      -86.724    -531.796      -1.835
  H      -89.097    -531.074      -1.266
  H      -88.933    -532.751      -1.836
  P      -87.559    -535.361      -0.935
  C      -89.411    -536.104      -2.627
  O      -88.409    -535.172      -2.284
  O      -88.482    -534.761       0.229
  O      -87.040    -536.736      -0.668
  H      -88.486    -533.787       0.228
  H      -89.904    -536.514      -1.740
  H      -88.963    -536.921      -3.201
  H      -90.162    -535.605      -3.245
  H      -92.235    -530.083       2.086
  H      -92.601    -530.482       0.424
  H      -90.989    -529.971       0.866

 3  4  5  6  7  8  9  10  11  12  13  23  28  29  30  31  32 0
 6-311+G(2d,p)
 ****
 33  34 0
 6-311+G(2d,p)
 ****
 1  2  14  15  16  17  18  19  20  21  22  24  25  26 0
 3-21G
 ****
 27  35  36  37  38  39  40  41  42  43  44  45 0
 3-21G
 ****


