%nproc=1
%NoSave
%Mem=1900MB
#P OB98/GEN NMR

erre ene a

0 1
  C       42.318     156.546     -66.980
  O       43.509     156.806     -66.229
  P       43.489     156.450     -64.666
  C       43.384     158.709     -63.376
  O       42.673     157.591     -63.894
  C       42.450     159.590     -62.543
  O       41.386     160.129     -63.351
  C       41.756     158.834     -61.424
  O       42.635     158.640     -60.333
  C       40.576     159.747     -61.109
  O       40.908     160.717     -60.102
  C       40.296     160.435     -62.464
  N       39.020     160.042     -63.040
  C       37.898     160.729     -62.565
  O       38.020     161.591     -61.694
  N       36.665     160.399     -63.072
  C       36.564     159.453     -63.954
  N       35.315     159.170     -64.415
  C       37.719     158.688     -64.460
  C       38.906     159.029     -63.963
  O       45.003     156.706     -64.212
  O       43.055     155.051     -64.371
  H       41.249     160.201     -59.342
  H       45.252     156.088     -63.503
  H       37.582     157.903     -65.189
  H       39.811     158.519     -64.278
  H       40.288     161.525     -62.343
  H       39.722     159.177     -60.727
  H       41.388     157.869     -61.795
  H       43.034     160.423     -62.128
  H       34.545     159.714     -64.044
  H       43.816     159.291     -64.193
  H       35.119     158.450     -65.094
  H       44.223     158.345     -62.772
  P       43.258     157.180     -60.128
  C       41.739     156.577     -58.149
  O       42.071     156.305     -59.497
  O       44.216     157.399     -58.860
  O       43.989     156.578     -61.281
  H       44.735     156.593     -58.689
  H       40.798     156.074     -57.912
  H       41.613     157.650     -57.992
  H       42.520     156.192     -57.489
  H       42.471     156.829     -68.001
  H       41.508     157.112     -66.571
  H       42.085     155.503     -66.930

 3  4  5  6  7  8  9  10  11  12  13  21  23  27  28  29  30  32 0
 6-311+G(2d,p)
 ****
 34  35 0
 6-311+G(2d,p)
 ****
 1  2  14  15  16  17  18  19  20  22  24  25  26 0
 3-21G
 ****
 31  33  36  37  38  39  40  41  42  43  44  45  46 0
 3-21G
 ****


