%nproc=1
%NoSave
%Mem=1900MB
#P OB98/GEN NMR

erre ene a

0 1
  C      154.466    -278.201    -157.043
  O      153.941    -277.346    -158.037
  H      155.208    -277.672    -156.439
  H      153.649    -278.528    -156.394
  H      154.921    -279.081    -157.507
  P      155.005    -276.673    -159.031
  C      157.032    -275.128    -158.562
  O      155.702    -275.482    -158.212
  C      157.677    -274.330    -157.435
  O      157.618    -275.072    -156.201
  C      159.152    -274.011    -157.645
  O      159.341    -272.918    -158.534
  C      159.567    -273.654    -156.224
  O      159.180    -272.297    -155.933
  C      158.733    -274.629    -155.380
  N      160.839    -276.997    -151.340
  C      160.161    -275.832    -151.450
  N      159.642    -275.259    -152.554
  C      159.861    -276.026    -153.635
  C      160.533    -277.236    -153.679
  C      161.042    -277.722    -152.463
  N      161.745    -278.903    -152.365
  N      160.548    -277.740    -154.961
  C      159.897    -276.851    -155.684
  N      159.469    -275.793    -154.928
  O      154.086    -275.900    -160.095
  O      155.939    -277.621    -159.705
  H      159.823    -271.720    -156.387
  H      154.510    -275.947    -160.971
  H      160.015    -275.285    -150.522
  H      159.712    -276.934    -156.747
  H      158.302    -274.135    -154.500
  H      160.643    -273.730    -156.057
  H      159.708    -274.897    -157.971
  H      157.096    -273.408    -157.300
  H      157.020    -274.520    -159.472
  H      161.909    -279.294    -151.454
  H      161.886    -279.446    -153.213
  H      157.601    -276.044    -158.754
  P      160.808    -272.717    -159.157
  C      163.105    -272.010    -158.179
  O      161.703    -272.124    -157.964
  O      160.616    -271.462    -160.131
  O      161.361    -273.900    -159.874
  H      161.288    -271.486    -160.840
  H      163.568    -271.603    -157.305
  H      163.287    -271.364    -159.013
  H      163.515    -272.978    -158.382

 6  7  8  9  10  11  12  13  14  15  25  28  32  33  34  35 0
 6-311+G(2d,p)
 ****
 36  39  40 0
 6-311+G(2d,p)
 ****
 1  2  3  4  5  16  17  18  19  20  21  22  23  24 0
 3-21G
 ****
 26  27  29  30  31  37  38  41  42  43  44  45  46  47  48 0
 3-21G
 ****


