%nproc=1
%NoSave
%Mem=1900MB
#P OB98/GEN NMR

erre ene a

0 1
  C      843.525     357.890       1.882
  O      843.174     357.210       3.066
  H      842.909     358.785       1.796
  H      843.338     357.246       1.019
  H      844.578     358.189       1.895
  P      844.150     356.071       3.623
  C      845.162     357.764       5.294
  O      845.418     356.811       4.274
  C      846.429     358.076       6.092
  O      847.022     356.840       6.565
  C      847.470     358.753       5.198
  O      848.332     359.618       5.939
  C      848.281     357.577       4.668
  O      849.580     357.952       4.218
  C      848.285     356.653       5.881
  N      851.488     352.971       4.437
  C      851.706     354.332       4.550
  N      852.951     354.764       4.211
  N      850.804     355.183       4.944
  C      849.598     354.614       5.178
  C      849.239     353.284       5.081
  C      850.272     352.343       4.680
  O      850.124     351.134       4.545
  N      847.919     353.094       5.373
  C      847.462     354.298       5.644
  N      848.448     355.257       5.554
  O      844.771     355.421       2.300
  O      843.508     355.035       4.496
  H      849.466     358.519       3.428
  H      845.057     354.505       2.472
  H      852.230     352.351       4.147
  H      846.441     354.534       5.922
  H      849.082     356.927       6.577
  H      847.747     357.158       3.812
  H      853.612     354.174       3.740
  H      847.006     359.327       4.386
  H      853.034     355.764       4.008
  H      846.182     358.670       6.980
  H      844.404     357.329       5.954
  H      844.743     358.677       4.861
  P      847.945     361.171       6.006
  C      847.207     360.831       8.499
  O      846.921     361.367       7.222
  O      847.045     361.397       4.694
  O      849.124     362.090       6.043
  H      847.558     361.882       4.018
  H      846.409     361.066       9.171
  H      848.119     361.253       8.867
  H      847.310     359.769       8.425

 6  7  8  9  10  11  12  13  14  15  26  29  33  34 0
 6-311+G(2d,p)
 ****
 36  38  39  40  41 0
 6-311+G(2d,p)
 ****
 1  2  3  4  5  16  17  18  19  20  21  22  23  24  25 0
 3-21G
 ****
 27  28  30  31  32  35  37  42  43  44  45  46  47 0
 3-21G
 ****
 48  49 0
 3-21G
 ****


