%nproc=1
%NoSave
%Mem=1900MB
#P OB98/GEN NMR

erre ene a

0 1
  C     -421.185     128.669     225.826
  O     -420.207     129.087     224.895
  H     -421.792     129.535     226.105
  H     -420.707     128.276     226.726
  H     -421.838     127.911     225.387
  P     -419.238     127.988     224.244
  C     -420.574     127.145     222.215
  O     -419.529     127.996     222.663
  C     -420.784     127.302     220.709
  O     -421.490     128.545     220.465
  C     -419.479     127.334     219.908
  O     -419.690     126.640     218.676
  C     -419.275     128.812     219.630
  O     -418.506     129.040     218.451
  C     -420.713     129.316     219.528
  N     -421.801     133.852     217.590
  C     -421.889     132.595     217.023
  N     -422.307     132.534     215.741
  N     -421.590     131.493     217.660
  C     -421.202     131.699     218.940
  C     -421.070     132.890     219.613
  C     -421.389     134.107     218.895
  O     -421.317     135.247     219.338
  N     -420.621     132.690     220.896
  C     -420.479     131.380     220.993
  N     -420.806     130.735     219.830
  O     -419.291     126.633     224.875
  O     -417.782     128.639     224.351
  H     -417.582     128.784     218.655
  H     -417.294     128.267     225.110
  H     -422.033     134.669     217.051
  H     -420.135     130.853     221.874
  H     -421.135     129.175     218.526
  H     -418.752     129.278     220.479
  H     -422.569     133.339     215.193
  H     -418.636     126.893     220.446
  H     -422.402     131.621     215.310
  H     -421.439     126.492     220.364
  H     -421.492     127.420     222.746
  H     -420.325     126.105     222.453
  P     -418.558     125.629     218.157
  C     -419.671     123.320     217.926
  O     -419.266     124.507     217.257
  O     -417.624     125.114     219.202
  O     -417.773     126.506     217.065
  H     -416.842     126.213     217.037
  H     -420.127     122.653     217.224
  H     -420.374     123.566     218.694
  H     -418.816     122.848     218.363

 6  7  8  9  10  11  12  13  14  15  26  29  33  34 0
 6-311+G(2d,p)
 ****
 36  38  39  40  41 0
 6-311+G(2d,p)
 ****
 1  2  3  4  5  16  17  18  19  20  21  22  23  24  25 0
 3-21G
 ****
 27  28  30  31  32  35  37  42  43  44  45  46  47 0
 3-21G
 ****
 48  49 0
 3-21G
 ****


