%nproc=1
%NoSave
%Mem=1900MB
#P OB98/GEN NMR

erre ene a

0 1
  C      482.000     198.663    -894.300
  O      480.883     197.829    -893.990
  P      479.657     198.492    -893.200
  C      477.131     197.914    -892.990
  O      478.441     197.458    -893.310
  C      476.094     196.838    -893.300
  O      475.987     196.645    -894.730
  C      476.428     195.453    -892.740
  O      476.063     195.326    -891.360
  C      475.540     194.570    -893.600
  O      474.186     194.609    -893.130
  C      475.650     195.275    -894.970
  N      476.449     191.893    -898.740
  C      475.331     192.213    -898.050
  N      475.205     193.091    -897.030
  C      476.392     193.690    -896.750
  C      477.606     193.436    -897.390
  C      477.607     192.495    -898.430
  N      478.744     192.206    -899.160
  N      478.611     194.231    -896.830
  C      477.992     194.952    -895.900
  N      476.642     194.669    -895.840
  O      479.210     199.706    -894.160
  O      479.985     198.973    -891.820
  H      474.199     194.381    -892.170
  H      478.739     200.377    -893.640
  H      474.440     191.656    -898.310
  H      478.462     195.693    -895.270
  H      474.686     195.247    -895.520
  H      475.852     193.522    -893.590
  H      477.483     195.200    -892.910
  H      475.124     197.186    -892.920
  H      476.903     198.809    -893.560
  H      478.621     191.665    -900.000
  H      479.553     192.795    -899.060
  H      477.111     198.174    -891.920
  P      476.372     193.939    -890.650
  C      477.403     193.335    -888.340
  O      477.262     194.290    -889.380
  O      477.401     193.228    -891.650
  O      475.143     193.081    -890.410
  H      477.359     192.245    -891.570
  H      478.260     193.593    -887.720
  H      477.579     192.326    -888.770
  H      476.497     193.309    -887.710
  H      482.737     198.092    -894.824
  H      482.422     199.045    -893.394
  H      481.677     199.478    -894.914

 3  4  5  6  7  8  9  10  11  12  22  25  29  30  31  32 0
 6-311+G(2d,p)
 ****
 33  36  37 0
 6-311+G(2d,p)
 ****
 1  2  13  14  15  16  17  18  19  20  21  23  24  26 0
 3-21G
 ****
 27  28  34  35  38  39  40  41  42  43  44  45  46  47  48 0
 3-21G
 ****


