%nproc=1
%NoSave
%Mem=1900MB
#P OB98/GEN NMR

erre ene a

0 1
  C      240.076    -114.415     -18.625
  O      240.887    -114.089     -19.736
  H      239.954    -113.523     -18.003
  H      240.551    -115.197     -18.028
  H      239.088    -114.749     -18.958
  P      241.097    -115.230     -20.843
  C      242.984    -116.946     -21.375
  O      242.507    -115.925     -20.511
  C      243.669    -118.044     -20.555
  O      244.733    -117.438     -19.771
  C      242.720    -118.748     -19.576
  O      243.072    -120.132     -19.502
  C      243.020    -118.067     -18.250
  O      242.685    -118.854     -17.114
  C      244.523    -117.808     -18.391
  N      244.999    -116.754     -17.494
  C      244.818    -116.944     -16.128
  O      244.355    -117.965     -15.617
  N      245.192    -115.892     -15.330
  C      245.693    -114.695     -15.755
  O      245.987    -113.785     -14.991
  C      245.854    -114.551     -17.210
  C      245.502    -115.570     -18.001
  O      241.406    -114.400     -22.176
  O      239.964    -116.185     -21.011
  H      240.578    -114.206     -22.658
  H      243.174    -119.701     -17.180
  H      245.071    -116.014     -14.336
  H      246.239    -113.613     -17.584
  H      245.594    -115.491     -19.077
  H      245.089    -118.731     -18.209
  H      242.469    -117.121     -18.181
  H      241.669    -118.648     -19.853
  H      244.136    -118.761     -21.240
  H      243.707    -116.516     -22.074
  H      242.143    -117.363     -21.941
  P      241.876    -121.204     -19.555
  C      239.949    -121.851     -17.908
  O      241.150    -121.126     -18.124
  O      242.681    -122.582     -19.519
  O      240.984    -121.019     -20.740
  H      243.471    -122.556     -18.951
  H      239.607    -121.685     -16.908
  H      240.132    -122.895     -18.054
  H      239.203    -121.520     -18.600

 6  7  8  9  10  11  12  13  14  15  16  27  31  32  33  34  35 0
 6-311+G(2d,p)
 ****
 36  37 0
 6-311+G(2d,p)
 ****
 1  2  3  4  5  17  18  19  20  21  22  23  24  25 0
 3-21G
 ****
 26  28  29  30  38  39  40  41  42  43  44  45 0
 3-21G
 ****


