%nproc=1
%NoSave
%Mem=1900MB
#P OB98/GEN NMR

erre ene a

0 1
  C      239.844    -403.457    1156.452
  O      239.642    -403.492    1155.051
  H      240.142    -402.446    1156.739
  H      240.641    -404.152    1156.735
  H      238.919    -403.711    1156.981
  P      239.094    -404.836    1154.378
  C      236.720    -403.895    1154.677
  O      237.574    -405.013    1154.869
  C      235.320    -404.357    1154.270
  O      235.371    -404.861    1152.907
  C      234.750    -405.461    1155.167
  O      233.351    -405.227    1155.323
  C      234.972    -406.722    1154.351
  O      234.028    -407.749    1154.674
  C      234.833    -406.203    1152.924
  N      234.220    -409.542    1149.180
  C      233.277    -408.810    1149.881
  N      231.983    -409.005    1149.552
  N      233.589    -407.944    1150.820
  C      234.926    -407.838    1151.035
  C      235.952    -408.511    1150.409
  C      235.597    -409.468    1149.385
  O      236.383    -410.157    1148.742
  N      237.175    -408.149    1150.921
  C      236.889    -407.265    1151.858
  N      235.540    -407.050    1151.969
  O      239.953    -406.046    1154.572
  O      238.939    -404.459    1152.830
  H      234.092    -408.425    1153.972
  H      239.696    -404.799    1152.316
  H      233.922    -410.190    1148.476
  H      237.612    -406.751    1152.479
  H      233.777    -406.151    1152.592
  H      235.982    -407.108    1154.531
  H      231.683    -409.634    1148.833
  H      235.241    -405.521    1156.140
  H      231.285    -408.458    1150.044
  H      234.657    -403.475    1154.253
  H      237.146    -403.268    1153.882
  H      236.673    -403.306    1155.592
  P      232.797    -404.889    1156.801
  C      231.588    -402.816    1155.862
  O      232.476    -403.311    1156.855
  O      233.601    -405.424    1157.937
  O      231.320    -405.530    1156.770
  H      231.089    -405.805    1157.685
  H      231.452    -401.763    1155.998
  H      230.644    -403.312    1155.949
  H      232.000    -403.000    1154.892

 6  7  8  9  10  11  12  13  14  15  26  29  33  34 0
 6-311+G(2d,p)
 ****
 36  38  39  40  41 0
 6-311+G(2d,p)
 ****
 1  2  3  4  5  16  17  18  19  20  21  22  23  24  25 0
 3-21G
 ****
 27  28  30  31  32  35  37  42  43  44  45  46  47 0
 3-21G
 ****
 48  49 0
 3-21G
 ****


