%nproc=1
%NoSave
%Mem=1900MB
#P OB98/GEN NMR

erre ene a

0 1
  C      -24.130    -573.220     -18.573
  O      -23.193    -573.532     -19.592
  P      -21.645    -573.556     -19.172
  C      -20.225    -571.789     -17.877
  O      -21.249    -572.045     -18.820
  C      -19.932    -570.289     -17.823
  O      -21.089    -569.577     -17.329
  C      -18.775    -569.909     -16.907
  O      -17.546    -570.098     -17.573
  C      -19.097    -568.450     -16.599
  O      -18.669    -567.595     -17.680
  C      -20.630    -568.475     -16.489
  N      -23.687    -566.546     -12.953
  C      -23.298    -566.028     -14.165
  N      -23.830    -564.828     -14.509
  N      -22.451    -566.616     -14.982
  C      -21.989    -567.796     -14.503
  C      -22.283    -568.410     -13.310
  C      -23.258    -567.772     -12.447
  O      -23.714    -568.245     -11.405
  N      -21.599    -569.588     -13.158
  C      -20.918    -569.699     -14.285
  N      -21.125    -568.644     -15.138
  O      -20.899    -573.844     -20.559
  O      -21.289    -574.550     -18.114
  H      -19.042    -567.934     -18.515
  H      -20.669    -574.790     -20.637
  H      -24.349    -566.060     -12.378
  H      -20.265    -570.526     -14.531
  H      -21.081    -567.560     -16.883
  H      -18.587    -568.099     -15.700
  H      -24.460    -564.299     -13.927
  H      -18.814    -570.497     -15.980
  H      -23.545    -564.430     -15.395
  H      -19.747    -569.948     -18.848
  H      -19.320    -572.322     -18.177
  H      -20.538    -572.165     -16.889
  P      -16.246    -570.366     -16.665
  C      -14.770    -568.923     -15.090
  O      -15.785    -568.950     -16.070
  O      -15.109    -570.716     -17.737
  O      -16.403    -571.458     -15.661
  H      -14.513    -571.392     -17.371
  H      -14.219    -567.979     -15.179
  H      -14.058    -569.756     -15.213
  H      -15.215    -568.981     -14.096
  H      -25.119    -573.237     -18.981
  H      -23.922    -572.246     -18.183
  H      -24.056    -573.942     -17.787

 3  4  5  6  7  8  9  10  11  12  23  26  30  31 0
 6-311+G(2d,p)
 ****
 33  35  36  37  38 0
 6-311+G(2d,p)
 ****
 1  2  13  14  15  16  17  18  19  20  21  22  24  25 0
 3-21G
 ****
 27  28  29  32  34  39  40  41  42  43  44  45  46  47  48  49 0
 3-21G
 ****


