%nproc=1
%NoSave
%Mem=1900MB
#P OB98/GEN NMR

erre ene a

0 1
  C      796.968    -423.062    -169.745
  O      796.674    -422.509    -171.012
  H      797.078    -424.150    -169.823
  H      797.916    -422.637    -169.390
  H      796.184    -422.817    -169.031
  P      795.316    -423.024    -171.708
  C      794.248    -420.703    -171.226
  O      794.118    -422.121    -171.120
  C      793.119    -420.013    -170.493
  O      791.910    -420.152    -171.300
  C      792.787    -420.597    -169.111
  O      792.735    -419.549    -168.127
  C      791.414    -421.221    -169.231
  O      790.646    -421.108    -168.061
  C      790.817    -420.413    -170.405
  N      785.902    -421.744    -170.137
  C      786.581    -420.718    -169.579
  N      787.889    -420.374    -169.749
  C      788.468    -421.177    -170.670
  C      787.900    -422.237    -171.356
  C      786.546    -422.518    -171.046
  N      785.876    -423.586    -171.583
  N      788.802    -422.830    -172.219
  C      789.937    -422.157    -171.993
  N      789.781    -421.145    -171.077
  O      795.084    -424.462    -171.023
  O      795.389    -423.126    -173.190
  H      789.741    -421.447    -168.254
  H      795.088    -425.145    -171.720
  H      786.015    -420.122    -168.867
  H      790.888    -422.372    -172.467
  H      790.409    -419.450    -170.081
  H      791.546    -422.276    -169.488
  H      793.542    -421.356    -168.794
  H      793.348    -418.960    -170.422
  H      794.234    -420.416    -172.294
  H      784.942    -423.806    -171.228
  H      786.375    -424.245    -172.171
  H      795.216    -420.416    -170.797
  P      793.751    -419.677    -166.895
  C      794.343    -417.174    -166.489
  O      794.802    -418.444    -166.970
  O      794.658    -420.942    -167.242
  O      793.078    -419.847    -165.548
  H      794.591    -421.621    -166.545
  H      795.124    -416.450    -166.592
  H      794.071    -417.260    -165.458
  H      793.491    -416.864    -167.058

 6  7  8  9  10  11  12  13  14  15  25  28  32  33  34  35 0
 6-311+G(2d,p)
 ****
 36  39  40 0
 6-311+G(2d,p)
 ****
 1  2  3  4  5  16  17  18  19  20  21  22  23  24 0
 3-21G
 ****
 26  27  29  30  31  37  38  41  42  43  44  45  46  47  48 0
 3-21G
 ****


