%nproc=1
%NoSave
%Mem=1900MB
#P OB98/GEN NMR

erre ene a

0 1
  C       43.352    -103.277      94.428
  O       44.127    -103.022      93.274
  H       43.920    -103.934      95.093
  H       42.416    -103.775      94.162
  H       43.139    -102.344      94.958
  P       43.483    -102.143      92.100
  C       43.449    -104.209      90.543
  O       42.695    -103.165      91.151
  C       42.529    -105.167      89.787
  O       41.737    -105.937      90.713
  C       41.532    -104.475      88.864
  O       42.175    -104.011      87.694
  C       40.522    -105.592      88.657
  O       41.002    -106.549      87.700
  C       40.469    -106.216      90.074
  N       39.359    -105.725      90.886
  C       38.086    -106.188      90.532
  O       37.947    -106.953      89.577
  N       37.006    -105.754      91.264
  C       37.182    -104.969      92.280
  N       36.072    -104.580      92.963
  C       38.509    -104.484      92.704
  C       39.541    -104.888      91.965
  O       44.416    -101.220      91.377
  O       42.302    -101.338      92.824
  H       41.937    -106.720      87.932
  H       42.614    -100.458      93.111
  H       38.610    -103.839      93.564
  H       40.552    -104.578      92.210
  H       40.383    -107.310      90.008
  H       39.565    -105.222      88.288
  H       41.034    -103.651      89.391
  H       43.161    -105.871      89.229
  H       35.185    -104.954      92.645
  H       43.968    -104.742      91.348
  H       36.102    -104.108      93.856
  H       44.202    -103.796      89.863
  P       41.882    -102.551      87.097
  C       39.915    -103.685      85.890
  O       40.339    -102.564      86.650
  O       42.837    -102.093      86.047
  O       41.858    -101.612      88.393
  H       42.781    -101.429      88.702
  H       38.877    -103.583      85.652
  H       40.064    -104.579      86.459
  H       40.484    -103.739      84.986

 6  7  8  9  10  11  12  13  14  15  16  26  30  31  32  33  35 0
 6-311+G(2d,p)
 ****
 37  38 0
 6-311+G(2d,p)
 ****
 1  2  3  4  5  17  18  19  20  21  22  23  24  25 0
 3-21G
 ****
 27  28  29  34  36  39  40  41  42  43  44  45  46 0
 3-21G
 ****


