%nproc=1
%NoSave
%Mem=1900MB
#P OB98/GEN NMR

erre ene a

0 1
  C      287.277     391.816    -890.350
  O      286.729     390.712    -891.060
  P      287.256     390.468    -892.560
  C      288.059     392.066    -894.460
  O      287.251     391.874    -893.300
  C      287.563     393.255    -895.290
  O      287.261     394.379    -894.410
  C      288.547     393.763    -896.300
  O      288.583     392.943    -897.470
  C      288.037     395.165    -896.580
  O      286.967     395.152    -897.550
  C      287.481     395.579    -895.190
  N      288.389     396.508    -894.490
  C      288.012     397.841    -894.490
  O      287.009     398.244    -895.080
  N      288.857     398.721    -893.840
  C      290.025     398.386    -893.240
  O      290.763     399.215    -892.730
  C      290.389     396.950    -893.270
  C      289.560     396.103    -893.900
  O      286.059     389.666    -893.260
  O      288.569     389.719    -892.650
  H      287.391     395.004    -898.420
  H      286.421     389.022    -893.890
  H      288.590     399.691    -893.840
  H      291.343     396.654    -892.810
  H      289.833     395.057    -893.950
  H      286.498     396.071    -895.290
  H      288.799     395.840    -896.970
  H      289.570     393.852    -895.870
  H      286.616     392.953    -895.780
  H      288.035     391.153    -895.070
  H      289.094     392.244    -894.150
  P      289.907     393.032    -898.380
  C      290.943     395.302    -899.130
  O      289.827     394.434    -899.110
  O      289.549     391.928    -899.500
  O      291.163     392.752    -897.610
  H      288.603     391.902    -899.700
  H      291.859     394.749    -899.190
  H      290.924     395.917    -898.230
  H      290.837     395.987    -900.000
  H      286.843     391.863    -889.373
  H      287.063     392.721    -890.879
  H      288.337     391.694    -890.264

 3  4  5  6  7  8  9  10  11  12  13  23  28  29  30  31  32 0
 6-311+G(2d,p)
 ****
 33  34 0
 6-311+G(2d,p)
 ****
 1  2  14  15  16  17  18  19  20  21  22  24  25  26 0
 3-21G
 ****
 27  35  36  37  38  39  40  41  42  43  44  45 0
 3-21G
 ****


