%nproc=1
%NoSave
%Mem=1900MB
#P OB98/GEN NMR

erre ene a

0 1
  C        9.573     128.725       4.311
  O       10.835     128.375       3.766
  P       11.980     129.500       3.759
  C       12.883     128.574       6.010
  O       12.442     129.710       5.281
  C       14.061     128.932       6.918
  O       14.395     127.774       7.734
  C       15.338     129.352       6.173
  O       15.976     130.350       6.978
  C       16.137     128.061       6.161
  O       17.515     128.237       5.878
  C       15.806     127.523       7.550
  N       19.205     124.113       9.266
  C       19.170     125.463       9.336
  N       18.227     126.304       8.863
  C       17.234     125.618       8.273
  C       17.141     124.246       8.109
  C       18.188     123.477       8.639
  N       18.225     122.099       8.558
  N       15.990     123.910       7.427
  C       15.397     125.059       7.182
  N       16.100     126.116       7.691
  O       11.167     130.840       3.435
  O       13.089     129.266       2.780
  H       17.944     127.366       5.760
  H       11.675     131.424       2.840
  H       20.012     125.929       9.839
  H       14.474     125.183       6.633
  H       16.347     128.061       8.338
  H       15.733     127.400       5.385
  H       15.144     129.764       5.179
  H       13.742     129.729       7.601
  H       13.214     127.800       5.310
  H       19.105     121.661       8.788
  H       17.578     121.659       7.917
  H       12.049     128.169       6.590
  P       17.041     131.334       6.291
  C       15.155     132.989       5.743
  O       16.172     132.158       5.221
  O       17.834     130.313       5.346
  O       17.902     132.115       7.223
  H       17.225     129.782       4.803
  H       14.714     133.559       4.921
  H       15.572     133.688       6.474
  H       14.376     132.380       6.208
  H        8.913     127.885       4.250
  H        9.161     129.543       3.759
  H        9.694     129.011       5.335

 3  4  5  6  7  8  9  10  11  12  22  25  29  30  31  32 0
 6-311+G(2d,p)
 ****
 33  36  37 0
 6-311+G(2d,p)
 ****
 1  2  13  14  15  16  17  18  19  20  21  23  24  26 0
 3-21G
 ****
 27  28  34  35  38  39  40  41  42  43  44  45  46  47  48 0
 3-21G
 ****


