%nproc=1
%NoSave
%Mem=1900MB
#P OB98/GEN NMR

erre ene a

0 1
  C     -699.071     405.396      39.777
  O     -699.307     404.132      40.359
  H     -699.457     406.169      40.451
  H     -699.573     405.491      38.814
  H     -697.989     405.564      39.647
  P     -699.057     402.829      39.451
  C     -698.537     401.979      41.827
  O     -698.834     401.622      40.481
  C     -698.059     400.768      42.627
  O     -697.130     399.984      41.839
  C     -697.284     401.130      43.902
  O     -698.102     401.702      44.912
  C     -696.521     399.852      44.183
  O     -697.258     398.894      44.937
  C     -696.249     399.305      42.764
  N     -694.852     399.434      42.373
  C     -694.377     398.456      41.494
  O     -695.064     397.528      41.077
  N     -693.059     398.562      41.144
  C     -692.174     399.493      41.618
  O     -690.989     399.509      41.301
  C     -692.727     400.478      42.566
  C     -694.018     400.406      42.896
  O     -697.980     402.954      38.411
  O     -700.501     402.518      38.839
  H     -697.581     399.334      45.741
  H     -700.435     401.912      38.057
  H     -692.693     397.873      40.502
  H     -692.049     401.226      42.955
  H     -694.451     401.128      43.587
  H     -696.518     398.242      42.713
  H     -695.606     400.048      44.748
  H     -696.540     401.892      43.636
  H     -698.920     400.127      42.857
  H     -699.459     402.363      42.281
  H     -697.777     402.770      41.839
  P     -697.488     402.453      46.182
  C     -699.992     402.457      46.887
  O     -698.638     402.529      47.313
  O     -696.650     403.664      45.923
  O     -696.507     401.307      46.777
  H     -695.736     401.761      47.170
  H     -700.637     402.520      47.738
  H     -700.158     401.529      46.381
  H     -700.200     403.268      46.221

 6  7  8  9  10  11  12  13  14  15  16  26  31  32  33  34  35 0
 6-311+G(2d,p)
 ****
 36  37 0
 6-311+G(2d,p)
 ****
 1  2  3  4  5  17  18  19  20  21  22  23  24  25 0
 3-21G
 ****
 27  28  29  30  38  39  40  41  42  43  44  45 0
 3-21G
 ****


