%nproc=1
%NoSave
%Mem=1900MB
#P OB98/GEN NMR

erre ene a

0 1
  C      342.850     848.933      94.163
  O      342.019     849.000      95.309
  H      342.455     848.163      93.491
  H      343.868     848.652      94.448
  H      342.863     849.886      93.633
  P      342.288     850.153      96.390
  C      343.921     850.501      98.356
  O      343.609     849.743      97.194
  C      344.714     849.630      99.345
  O      345.824     849.007      98.681
  C      345.288     850.418     100.520
  O      344.290     850.728     101.468
  C      346.354     849.443     101.006
  O      345.774     848.414     101.829
  C      346.879     848.850      99.674
  N      348.124     849.474      99.226
  C      349.246     849.262     100.028
  O      349.213     848.619     101.082
  N      350.417     849.842      99.595
  C      350.535     850.689      98.531
  O      351.580     851.251      98.234
  C      349.319     850.895      97.735
  C      348.191     850.294      98.113
  O      341.121     850.522      97.243
  O      342.778     851.392      95.500
  H      346.519     847.882     102.167
  H      342.061     852.050      95.436
  H      351.220     849.710     100.168
  H      349.374     851.552      96.873
  H      347.274     850.436      97.534
  H      347.048     847.772      99.775
  H      347.125     849.929     101.606
  H      345.787     851.315     100.158
  H      344.041     848.838      99.704
  H      342.994     850.830      98.819
  H      344.515     851.382      98.064
  P      344.361     852.116     102.265
  C      345.808     853.174     104.110
  O      345.577     852.023     103.305
  O      343.058     852.599     102.843
  O      344.909     853.152     101.171
  H      344.252     853.868     101.035
  H      346.639     852.994     104.760
  H      344.936     853.381     104.695
  H      346.023     854.012     103.481

 6  7  8  9  10  11  12  13  14  15  16  26  31  32  33  34  35 0
 6-311+G(2d,p)
 ****
 36  37 0
 6-311+G(2d,p)
 ****
 1  2  3  4  5  17  18  19  20  21  22  23  24  25 0
 3-21G
 ****
 27  28  29  30  38  39  40  41  42  43  44  45 0
 3-21G
 ****


