%nproc=1
%NoSave
%Mem=1900MB
#P OB98/GEN NMR

erre ene a

0 1
  C      -28.766      43.993     -13.992
  O      -30.106      43.541     -14.005
  H      -28.507      44.345     -14.994
  H      -28.084      43.185     -13.717
  H      -28.659      44.824     -13.291
  P      -30.639      42.720     -12.733
  C      -31.063      44.955     -11.520
  O      -30.408      43.690     -11.472
  C      -30.728      45.798     -10.290
  O      -31.188      47.155     -10.461
  C      -31.392      45.321      -9.009
  O      -30.941      44.071      -8.540
  C      -31.260      46.543      -8.114
  O      -29.980      46.625      -7.489
  C      -31.424      47.692      -9.140
  N      -32.729      48.337      -9.045
  C      -32.716      49.709      -8.825
  O      -31.683      50.366      -8.688
  N      -33.941      50.309      -8.729
  C      -35.147      49.677      -8.786
  O      -36.213      50.270      -8.672
  C      -35.098      48.219      -8.982
  C      -33.909      47.624      -9.104
  O      -30.057      41.348     -12.558
  O      -32.228      42.728     -12.910
  H      -29.320      46.708      -8.204
  H      -32.655      42.051     -12.329
  H      -33.953      51.307      -8.584
  H      -36.036      47.683      -9.019
  H      -33.846      46.549      -9.252
  H      -30.655      48.459      -8.976
  H      -32.010      46.555      -7.320
  H      -32.465      45.196      -9.205
  H      -29.638      45.828     -10.186
  H      -32.142      44.771     -11.548
  H      -30.770      45.483     -12.433
  P      -31.582      43.306      -7.298
  C      -33.939      43.245      -8.426
  O      -33.160      43.585      -7.285
  O      -30.842      43.395      -6.003
  O      -31.516      41.770      -7.793
  H      -31.359      41.220      -7.001
  H      -34.963      43.497      -8.247
  H      -33.858      42.195      -8.613
  H      -33.582      43.787      -9.276

 6  7  8  9  10  11  12  13  14  15  16  26  31  32  33  34  35 0
 6-311+G(2d,p)
 ****
 36  37 0
 6-311+G(2d,p)
 ****
 1  2  3  4  5  17  18  19  20  21  22  23  24  25 0
 3-21G
 ****
 27  28  29  30  38  39  40  41  42  43  44  45 0
 3-21G
 ****


