%nproc=1
%NoSave
%Mem=1900MB
#P OB98/GEN NMR

erre ene a

0 1
  C     -146.373     438.259    1007.607
  O     -145.842     438.283    1008.913
  H     -146.848     439.233    1007.397
  H     -147.139     437.478    1007.504
  H     -145.580     438.099    1006.867
  P     -145.333     436.897    1009.543
  C     -142.835     437.397    1009.070
  O     -143.847     437.186    1010.075
  C     -141.967     438.610    1009.401
  O     -142.721     439.833    1009.192
  C     -141.520     438.676    1010.871
  O     -140.571     437.674    1011.207
  C     -141.166     440.144    1011.031
  O     -139.832     440.461    1010.633
  C     -142.168     440.823    1010.074
  N     -143.210     441.561    1010.803
  C     -142.949     442.895    1011.080
  O     -141.906     443.461    1010.748
  N     -143.923     443.564    1011.775
  C     -145.080     443.023    1012.263
  O     -145.889     443.661    1012.919
  C     -145.290     441.582    1011.966
  C     -144.363     440.924    1011.267
  O     -145.442     435.696    1008.649
  O     -146.172     436.770    1010.898
  H     -139.235     440.108    1011.321
  H     -146.156     435.848    1011.242
  H     -143.757     444.546    1011.969
  H     -146.192     441.119    1012.340
  H     -144.500     439.877    1011.040
  H     -141.645     441.552    1009.432
  H     -141.264     440.464    1012.076
  H     -142.399     438.487    1011.499
  H     -141.106     438.627    1008.719
  H     -143.346     437.558    1008.109
  H     -142.216     436.500    1008.986
  P     -140.235     437.299    1012.729
  C     -141.881     435.270    1012.777
  O     -140.522     435.715    1012.916
  O     -140.693     438.248    1013.780
  O     -138.617     437.337    1012.708
  H     -138.313     437.657    1013.579
  H     -141.926     434.211    1012.924
  H     -142.236     435.510    1011.797
  H     -142.493     435.758    1013.507

 6  7  8  9  10  11  12  13  14  15  16  26  31  32  33  34  35 0
 6-311+G(2d,p)
 ****
 36  37 0
 6-311+G(2d,p)
 ****
 1  2  3  4  5  17  18  19  20  21  22  23  24  25 0
 3-21G
 ****
 27  28  29  30  38  39  40  41  42  43  44  45 0
 3-21G
 ****


