%nproc=1
%NoSave
%Mem=1900MB
#P OB98/GEN NMR

erre ene a

0 1
  C      325.980      29.926     -92.363
  O      327.297      30.252     -92.777
  P      328.125      29.127     -93.570
  C      327.779      27.869     -95.815
  O      327.187      28.642     -94.779
  C      326.781      26.869     -96.403
  O      326.571      25.799     -95.450
  C      325.417      27.473     -96.746
  O      324.948      26.846     -97.939
  C      324.540      27.044     -95.584
  O      323.162      27.015     -95.949
  C      325.151      25.677     -95.239
  N      324.847      25.267     -93.871
  C      323.509      25.333     -93.474
  O      322.662      25.796     -94.236
  N      323.175      24.923     -92.208
  C      324.107      24.580     -91.375
  N      323.724      24.178     -90.134
  C      325.544      24.616     -91.716
  C      325.838      24.946     -92.972
  O      328.094      27.885     -92.560
  O      329.514      29.520     -93.941
  H      322.884      27.934     -96.163
  H      328.908      27.352     -92.640
  H      326.284      24.356     -90.972
  H      326.862      24.974     -93.318
  H      324.778      24.903     -95.923
  H      324.661      27.742     -94.747
  H      325.457      28.557     -96.888
  H      327.232      26.422     -97.299
  H      322.735      24.175     -89.919
  H      328.622      27.307     -95.404
  H      324.382      23.894     -89.419
  H      328.162      28.535     -96.594
  P      324.022      27.714     -98.920
  C      324.295      30.017    -100.023
  O      324.731      29.152     -98.993
  O      322.762      28.026     -97.979
  O      323.592      27.105    -100.211
  H      322.084      28.507     -98.484
  H      324.755      30.997     -99.873
  H      323.208      30.129     -99.996
  H      324.611      29.628    -100.995
  H      325.550      30.761     -91.851
  H      326.011      29.082     -91.706
  H      325.385      29.689     -93.220

 3  4  5  6  7  8  9  10  11  12  13  21  23  27  28  29  30  32 0
 6-311+G(2d,p)
 ****
 34  35 0
 6-311+G(2d,p)
 ****
 1  2  14  15  16  17  18  19  20  22  24  25  26 0
 3-21G
 ****
 31  33  36  37  38  39  40  41  42  43  44  45  46 0
 3-21G
 ****


