%nproc=1
%NoSave
%Mem=1900MB
#P OB98/GEN NMR

erre ene a

0 1
  C     -549.534    -184.695    -315.577
  O     -550.793    -184.688    -314.905
  P     -551.077    -185.372    -313.490
  C     -553.463    -186.428    -313.216
  O     -552.648    -185.266    -313.189
  C     -554.975    -186.123    -313.156
  O     -555.232    -185.173    -312.095
  C     -555.416    -185.443    -314.458
  O     -555.738    -186.225    -315.602
  C     -556.522    -184.487    -314.033
  O     -557.832    -185.075    -314.161
  C     -556.206    -184.218    -312.564
  N     -556.707    -179.226    -313.606
  C     -557.370    -180.302    -314.156
  N     -558.248    -180.028    -315.155
  N     -557.169    -181.543    -313.782
  C     -556.210    -181.682    -312.841
  C     -555.463    -180.694    -312.230
  C     -555.728    -179.330    -312.615
  O     -555.179    -178.333    -312.145
  N     -554.573    -181.219    -311.343
  C     -554.752    -182.529    -311.435
  N     -555.743    -182.859    -312.334
  O     -550.147    -184.986    -312.391
  O     -550.852    -186.945    -313.789
  H     -557.930    -185.382    -315.074
  H     -550.498    -187.334    -312.970
  H     -556.903    -178.292    -313.915
  H     -554.191    -183.265    -310.871
  H     -557.097    -184.357    -311.925
  H     -556.526    -183.596    -314.659
  H     -558.352    -179.117    -315.563
  H     -554.593    -184.793    -314.797
  H     -558.572    -180.827    -315.704
  H     -555.555    -187.023    -312.917
  H     -553.170    -187.048    -312.347
  H     -553.241    -187.028    -314.102
  P     -555.621    -185.768    -317.127
  C     -557.475    -186.652    -318.654
  O     -556.235    -186.932    -318.038
  O     -554.039    -185.858    -317.441
  O     -556.119    -184.387    -317.417
  H     -553.823    -185.375    -318.252
  H     -557.923    -187.597    -318.980
  H     -557.314    -186.017    -319.516
  H     -558.157    -186.160    -317.957
  H     -549.621    -184.167    -316.503
  H     -549.238    -185.705    -315.769
  H     -548.799    -184.219    -314.962

 3  4  5  6  7  8  9  10  11  12  23  26  30  31 0
 6-311+G(2d,p)
 ****
 33  35  36  37  38 0
 6-311+G(2d,p)
 ****
 1  2  13  14  15  16  17  18  19  20  21  22  24  25 0
 3-21G
 ****
 27  28  29  32  34  39  40  41  42  43  44  45  46  47  48  49 0
 3-21G
 ****


