%nproc=1
%NoSave
%Mem=1900MB
#P OB98/GEN NMR

erre ene a

0 1
  C      152.908      17.514     -77.987
  O      151.969      16.476     -78.177
  H      153.831      17.252     -78.513
  H      153.135      17.649     -76.927
  H      152.524      18.449     -78.406
  P      150.626      16.502     -77.297
  C      150.139      16.689     -74.767
  O      151.112      16.396     -75.769
  C      150.152      15.628     -73.665
  O      149.827      14.335     -74.215
  C      151.510      15.448     -73.003
  O      151.914      16.542     -72.208
  C      151.388      14.068     -72.376
  O      150.791      14.082     -71.083
  C      150.453      13.344     -73.375
  N      151.161      12.338     -74.157
  C      150.917      11.016     -73.806
  O      150.173      10.684     -72.881
  N      151.593      10.071     -74.527
  C      152.508      10.320     -75.508
  O      153.114       9.428     -76.090
  C      152.744      11.738     -75.819
  C      152.070      12.671     -75.141
  O      149.582      15.493     -77.672
  O      150.126      18.017     -77.413
  H      150.766      13.158     -70.768
  H      149.181      18.101     -77.140
  H      151.421       9.107     -74.292
  H      153.465      11.974     -76.590
  H      152.228      13.725     -75.350
  H      149.640      12.839     -72.835
  H      152.364      13.588     -72.271
  H      152.264      15.358     -73.795
  H      149.384      15.887     -72.927
  H      149.156      16.694     -75.250
  H      150.331      17.681     -74.346
  P      153.424      17.056     -72.127
  C      155.733      15.917     -71.767
  O      154.329      15.865     -71.534
  O      153.637      18.441     -71.609
  O      153.844      17.055     -73.686
  H      154.461      17.800     -73.824
  H      156.201      15.066     -71.318
  H      156.133      16.812     -71.338
  H      155.920      15.912     -72.820

 6  7  8  9  10  11  12  13  14  15  16  26  31  32  33  34  35 0
 6-311+G(2d,p)
 ****
 36  37 0
 6-311+G(2d,p)
 ****
 1  2  3  4  5  17  18  19  20  21  22  23  24  25 0
 3-21G
 ****
 27  28  29  30  38  39  40  41  42  43  44  45 0
 3-21G
 ****


