%nproc=1
%NoSave
%Mem=1900MB
#P OB98/GEN NMR

erre ene a

0 1
  C     -234.641     -92.654     -49.191
  O     -234.344     -91.545     -50.014
  H     -235.631     -92.508     -48.753
  H     -233.912     -92.735     -48.380
  H     -234.652     -93.577     -49.777
  P     -232.933     -91.515     -50.777
  C     -230.493     -91.591     -49.911
  O     -231.853     -91.337     -49.598
  C     -229.688     -91.801     -48.630
  O     -230.092     -93.008     -47.950
  C     -228.186     -91.965     -48.839
  O     -227.518     -90.758     -49.163
  C     -227.789     -92.495     -47.473
  O     -227.785     -91.418     -46.518
  C     -228.943     -93.488     -47.194
  N     -228.613     -94.859     -47.579
  C     -227.894     -95.615     -46.645
  O     -227.560     -95.129     -45.566
  N     -227.536     -96.902     -46.972
  C     -227.847     -97.383     -48.134
  N     -227.463     -98.661     -48.405
  C     -228.584     -96.616     -49.155
  C     -228.935     -95.377     -48.816
  O     -232.819     -90.540     -51.903
  O     -232.682     -93.033     -51.215
  H     -226.984     -90.891     -46.691
  H     -231.823     -93.069     -51.703
  H     -228.794     -97.053     -50.121
  H     -229.474     -94.748     -49.516
  H     -229.224     -93.475     -46.135
  H     -226.796     -92.945     -47.457
  H     -227.977     -92.739     -49.586
  H     -229.912     -90.962     -47.959
  H     -226.958     -99.163     -47.685
  H     -230.109     -90.736     -50.478
  H     -227.594     -99.089     -49.310
  H     -230.410     -92.491     -50.523
  P     -225.978     -90.876     -49.604
  C     -223.730     -91.247     -48.326
  O     -225.136     -91.063     -48.256
  O     -225.625     -89.392     -50.084
  O     -225.694     -91.902     -50.656
  H     -225.673     -89.323     -51.057
  H     -223.335     -91.354     -47.338
  H     -223.282     -90.398     -48.799
  H     -223.513     -92.127     -48.894

 6  7  8  9  10  11  12  13  14  15  16  26  30  31  32  33  35 0
 6-311+G(2d,p)
 ****
 37  38 0
 6-311+G(2d,p)
 ****
 1  2  3  4  5  17  18  19  20  21  22  23  24  25 0
 3-21G
 ****
 27  28  29  34  36  39  40  41  42  43  44  45  46 0
 3-21G
 ****


