%nproc=1
%NoSave
%Mem=1900MB
#P OB98/GEN NMR

erre ene a

0 1
  C      -31.919    -681.291    -759.111
  O      -32.539    -681.718    -760.302
  H      -31.698    -680.222    -759.195
  H      -30.979    -681.833    -758.961
  H      -32.585    -681.450    -758.257
  P      -32.929    -683.278    -760.393
  C      -34.943    -682.889    -761.987
  O      -34.503    -683.324    -760.704
  C      -35.784    -681.617    -761.858
  O      -35.054    -680.585    -761.134
  C      -36.207    -681.008    -763.187
  O      -37.360    -681.648    -763.702
  C      -36.478    -679.557    -762.783
  O      -37.780    -679.419    -762.175
  C      -35.361    -679.303    -761.745
  N      -32.776    -675.009    -762.352
  C      -33.952    -675.246    -761.661
  N      -34.555    -674.182    -761.104
  N      -34.496    -676.432    -761.553
  C      -33.799    -677.409    -762.190
  C      -32.617    -677.291    -762.889
  C      -32.017    -675.975    -762.986
  O      -30.941    -675.710    -763.516
  N      -32.205    -678.507    -763.394
  C      -33.158    -679.341    -763.021
  N      -34.156    -678.722    -762.314
  O      -32.839    -683.769    -758.871
  O      -32.068    -684.104    -761.288
  H      -38.465    -679.478    -762.852
  H      -32.581    -684.707    -758.856
  H      -32.399    -674.076    -762.382
  H      -33.176    -680.406    -763.250
  H      -35.699    -678.629    -760.947
  H      -36.448    -678.887    -763.640
  H      -34.378    -673.243    -761.427
  H      -35.370    -681.031    -763.913
  H      -35.432    -674.347    -760.613
  H      -36.670    -681.870    -761.255
  H      -35.540    -683.673    -762.450
  H      -34.062    -682.697    -762.614
  P      -37.347    -682.033    -765.270
  C      -39.054    -683.995    -765.430
  O      -37.689    -683.597    -765.346
  O      -35.796    -681.974    -765.671
  O      -38.193    -681.143    -766.135
  H      -35.701    -681.915    -766.637
  H      -39.112    -685.063    -765.473
  H      -39.493    -683.578    -766.312
  H      -39.582    -683.643    -764.568

 6  7  8  9  10  11  12  13  14  15  26  29  33  34 0
 6-311+G(2d,p)
 ****
 36  38  39  40  41 0
 6-311+G(2d,p)
 ****
 1  2  3  4  5  16  17  18  19  20  21  22  23  24  25 0
 3-21G
 ****
 27  28  30  31  32  35  37  42  43  44  45  46  47 0
 3-21G
 ****
 48  49 0
 3-21G
 ****


