%nproc=1
%NoSave
%Mem=1900MB
#P OB98/GEN NMR

erre ene a

0 1
  C      505.303    -360.429     -42.972
  O      505.568    -359.417     -42.000
  P      506.898    -359.506     -41.113
  C      506.010    -359.670     -38.691
  O      506.600    -360.355     -39.790
  C      505.996    -360.579     -37.456
  O      505.183    -361.759     -37.678
  C      507.375    -361.114     -37.098
  O      508.313    -360.180     -36.601
  C      507.035    -362.306     -36.219
  O      506.785    -361.917     -34.868
  C      505.738    -362.832     -36.878
  N      505.961    -364.031     -37.688
  C      504.812    -364.681     -38.136
  O      503.677    -364.323     -37.848
  N      505.024    -365.797     -38.905
  C      506.234    -366.331     -39.232
  O      506.363    -367.348     -39.907
  C      507.411    -365.612     -38.710
  C      507.222    -364.517     -37.969
  O      507.617    -358.214     -40.894
  O      507.818    -360.510     -41.971
  H      506.140    -361.188     -34.887
  H      508.738    -360.165     -41.946
  H      504.201    -366.279     -39.244
  H      508.393    -366.012     -38.943
  H      508.079    -363.972     -37.575
  H      504.995    -363.071     -36.120
  H      507.859    -363.036     -36.193
  H      507.827    -361.518     -38.017
  H      505.552    -360.025     -36.623
  H      504.996    -359.364     -38.946
  H      506.573    -358.753     -38.501
  P      509.444    -359.506     -37.505
  C      511.144    -361.449     -37.764
  O      510.153    -360.653     -38.376
  O      510.333    -358.497     -36.849
  O      508.556    -358.750     -38.616
  H      509.017    -357.929     -38.879
  H      511.523    -362.160     -38.513
  H      510.712    -362.011     -36.935
  H      511.974    -360.828     -37.417
  H      504.380    -360.213     -43.469
  H      505.233    -361.380     -42.487
  H      506.097    -360.452     -43.689

 3  4  5  6  7  8  9  10  11  12  13  23  28  29  30  31  32 0
 6-311+G(2d,p)
 ****
 33  34 0
 6-311+G(2d,p)
 ****
 1  2  14  15  16  17  18  19  20  21  22  24  25  26  27 0
 3-21G
 ****
 35  36  37  38  39  40  41  42  43  44  45 0
 3-21G
 ****


