%nproc=1
%NoSave
%Mem=1900MB
#P OB98/GEN NMR

erre ene a

0 1
  C       96.010     501.971    -198.205
  O       96.455     501.107    -197.180
  P       95.458     500.063    -196.487
  C       95.247     501.599    -194.445
  O       95.530     500.285    -194.899
  C       95.651     501.781    -192.982
  O       94.826     500.932    -192.146
  C       97.119     501.443    -192.687
  O       97.588     502.391    -191.719
  C       97.040     500.058    -192.081
  O       98.178     499.745    -191.290
  C       95.717     500.159    -191.314
  N       95.152     498.853    -191.003
  C       95.394     498.349    -189.724
  O       96.165     498.934    -188.962
  N       94.768     497.182    -189.350
  C       94.117     496.493    -190.239
  N       93.456     495.382    -189.807
  C       94.055     496.875    -191.661
  C       94.549     498.072    -191.967
  O       95.621     498.645    -196.923
  O       93.994     500.611    -196.860
  H       93.479     499.888    -197.267
  H       98.423     500.535    -190.762
  H       93.609     496.207    -192.385
  H       94.521     498.457    -192.979
  H       95.854     500.716    -190.380
  H       96.963     499.309    -192.883
  H       97.753     501.497    -193.579
  H       95.439     502.820    -192.698
  H       93.494     495.172    -188.817
  H       94.172     501.771    -194.544
  H       92.686     494.974    -190.338
  H       95.757     502.333    -195.080
  P       98.557     503.574    -192.215
  C      101.000     502.956    -191.577
  O       99.812     503.630    -191.216
  O       97.726     504.878    -191.783
  O       98.852     503.624    -193.681
  H       97.987     505.625    -192.355
  H      101.713     503.043    -190.758
  H      101.439     503.408    -192.477
  H      100.802     501.893    -191.759
  H       96.823     502.585    -198.532
  H       95.222     502.591    -197.832
  H       95.648     501.391    -199.028

 3  4  5  6  7  8  9  10  11  12  13  24  27  28  29  30  32 0
 6-311+G(2d,p)
 ****
 34  35 0
 6-311+G(2d,p)
 ****
 1  2  14  15  16  17  18  19  20  21  22  23  25  26 0
 3-21G
 ****
 31  33  36  37  38  39  40  41  42  43  44  45  46 0
 3-21G
 ****


