%nproc=1
%NoSave
%Mem=1900MB
#P OB98/GEN NMR

erre ene a

0 1
  C     -396.693    -943.995     594.340
  O     -396.005    -944.525     593.233
  H     -397.174    -944.822     594.872
  H     -397.471    -943.303     594.013
  H     -396.000    -943.496     595.020
  P     -395.235    -943.527     592.230
  C     -395.569    -944.617     589.928
  O     -394.689    -944.457     591.036
  C     -394.929    -945.464     588.825
  O     -393.509    -945.168     588.752
  C     -395.079    -946.977     589.056
  O     -395.512    -947.612     587.848
  C     -393.659    -947.424     589.383
  O     -393.435    -948.801     589.100
  C     -392.838    -946.430     588.555
  N     -391.446    -946.382     588.977
  C     -390.568    -947.244     588.299
  O     -390.986    -947.971     587.402
  N     -389.255    -947.301     588.698
  C     -388.860    -946.586     589.713
  N     -387.553    -946.699     590.063
  C     -389.758    -945.696     590.468
  C     -391.021    -945.640     590.057
  O     -394.205    -942.667     592.889
  O     -396.401    -942.679     591.518
  H     -394.145    -949.330     589.529
  H     -396.011    -941.839     591.179
  H     -389.384    -945.125     591.314
  H     -391.760    -945.006     590.552
  H     -392.877    -946.680     587.490
  H     -393.473    -947.267     590.454
  H     -395.779    -947.229     589.857
  H     -395.369    -945.169     587.859
  H     -386.975    -947.331     589.516
  H     -395.827    -943.614     589.546
  H     -387.143    -946.221     590.856
  H     -396.480    -945.113     590.287
  P     -397.094    -947.816     587.678
  C     -396.693    -950.185     586.703
  O     -397.334    -948.936     586.557
  O     -397.558    -946.446     586.987
  O     -397.801    -948.040     588.972
  H     -398.083    -945.914     587.616
  H     -396.952    -950.817     585.880
  H     -397.008    -950.643     587.617
  H     -395.633    -950.042     586.722

 6  7  8  9  10  11  12  13  14  15  16  26  30  31  32  33  35 0
 6-311+G(2d,p)
 ****
 37  38 0
 6-311+G(2d,p)
 ****
 1  2  3  4  5  17  18  19  20  21  22  23  24  25 0
 3-21G
 ****
 27  28  29  34  36  39  40  41  42  43  44  45  46 0
 3-21G
 ****


