%nproc=1
%NoSave
%Mem=1900MB
#P OB98/GEN NMR

erre ene a

0 1
  C     -276.425     437.990     791.958
  O     -275.297     438.446     791.175
  P     -275.611     438.919     789.672
  C     -275.078     441.422     790.179
  O     -274.776     440.267     789.401
  C     -273.801     442.208     790.468
  O     -272.975     441.552     791.457
  C     -272.895     442.379     789.238
  O     -273.434     443.359     788.355
  C     -271.577     442.770     789.906
  O     -271.591     444.157     790.268
  C     -271.588     441.900     791.175
  N     -267.942     439.034     793.341
  C     -268.518     440.193     793.715
  N     -269.485     440.904     793.082
  C     -269.855     440.273     791.953
  C     -269.367     439.070     791.441
  C     -268.367     438.442     792.192
  N     -267.767     437.254     791.802
  N     -270.015     438.753     790.259
  C     -270.850     439.749     790.042
  N     -270.803     440.685     791.044
  O     -277.132     439.430     789.757
  O     -275.449     437.845     788.644
  H     -271.665     444.683     789.435
  H     -277.721     438.806     789.302
  H     -268.143     440.618     794.641
  H     -271.508     439.824     789.178
  H     -271.208     442.448     792.047
  H     -270.706     442.612     789.254
  H     -272.795     441.417     788.718
  H     -274.087     443.203     790.865
  H     -275.542     441.125     791.113
  H     -266.998     436.905     792.347
  H     -268.015     436.865     790.900
  H     -275.813     442.033     789.641
  P     -273.377     443.031     786.775
  C     -275.879     443.222     786.247
  O     -274.620     443.862     786.173
  O     -273.894     441.530     786.736
  O     -272.050     443.286     786.123
  H     -274.683     441.398     787.288
  H     -276.645     443.896     785.835
  H     -276.141     442.979     787.280
  H     -275.868     442.298     785.633
  H     -276.090     437.704     792.933
  H     -276.877     437.149     791.476
  H     -277.142     438.780     792.044

 3  4  5  6  7  8  9  10  11  12  22  25  29  30  31  32 0
 6-311+G(2d,p)
 ****
 33  36  37 0
 6-311+G(2d,p)
 ****
 1  2  13  14  15  16  17  18  19  20  21  23  24  26 0
 3-21G
 ****
 27  28  34  35  38  39  40  41  42  43  44  45  46  47  48 0
 3-21G
 ****


