%nproc=1
%NoSave
%Mem=1900MB
#P OB98/GEN NMR

erre ene a

0 1
  C       25.991     175.102     176.663
  O       26.591     174.679     177.869
  H       24.941     175.342     176.857
  H       26.034     174.304     175.918
  H       26.494     175.997     176.281
  P       28.127     174.221     177.792
  C       28.694     172.084     179.157
  O       28.455     173.486     179.182
  C       28.542     171.514     180.569
  O       29.438     172.198     181.472
  C       27.149     171.699     181.168
  O       26.224     170.755     180.669
  C       27.446     171.512     182.644
  O       27.466     170.124     183.007
  C       28.847     172.149     182.787
  N       28.798     173.466     183.419
  C       28.792     173.467     184.808
  O       28.825     172.440     185.488
  N       28.706     174.698     185.407
  C       28.589     175.893     184.757
  O       28.439     176.959     185.349
  C       28.610     175.829     183.285
  C       28.699     174.641     182.691
  O       28.924     175.604     177.896
  O       28.494     173.447     176.571
  H       29.245     175.871     177.014
  H       26.547     169.885     183.233
  H       28.691     174.717     186.413
  H       28.524     176.762     182.743
  H       28.701     174.559     181.610
  H       29.495     171.506     183.400
  H       26.688     171.988     183.271
  H       26.801     172.728     180.999
  H       28.810     170.450     180.546
  H       29.709     171.890     178.804
  H       27.981     171.611     178.473
  P       25.017     171.275     179.747
  C       23.137     170.409     181.373
  O       23.745     170.355     180.091
  O       25.487     170.762     178.305
  O       24.771     172.745     179.846
  H       25.945     169.904     178.332
  H       22.312     169.728     181.406
  H       22.787     171.403     181.560
  H       23.854     170.137     182.119

 6  7  8  9  10  11  12  13  14  15  16  27  31  32  33  34  35 0
 6-311+G(2d,p)
 ****
 36  37 0
 6-311+G(2d,p)
 ****
 1  2  3  4  5  17  18  19  20  21  22  23  24  25 0
 3-21G
 ****
 26  28  29  30  38  39  40  41  42  43  44  45 0
 3-21G
 ****


