%nproc=1
%NoSave
%Mem=1900MB
#P OB98/GEN NMR

erre ene a

0 1
  C       31.430     209.260     141.447
  O       31.174     209.442     142.825
  H       30.523     209.503     140.888
  H       31.700     208.220     141.241
  H       32.232     209.926     141.116
  P       32.343     209.110     143.868
  C       32.885     206.940     145.162
  O       32.438     207.509     143.937
  C       33.306     205.488     144.950
  O       34.408     205.416     144.023
  C       33.763     204.775     146.219
  O       32.648     204.318     146.967
  C       34.571     203.636     145.623
  O       33.680     202.621     145.118
  C       35.283     204.334     144.449
  N       40.267     203.417     144.762
  C       39.220     202.548     144.522
  N       39.543     201.246     144.374
  N       37.967     202.921     144.448
  C       37.787     204.240     144.683
  C       38.741     205.196     144.949
  C       40.129     204.783     144.965
  O       41.088     205.526     145.148
  N       38.170     206.411     145.228
  C       36.875     206.203     145.079
  N       36.589     204.896     144.758
  O       32.235     209.769     145.209
  O       33.686     209.523     143.103
  H       33.163     203.025     144.398
  H       33.936     210.444     143.303
  H       41.210     203.071     144.816
  H       36.106     206.958     145.187
  H       35.420     203.666     143.594
  H       35.229     203.154     146.349
  H       40.464     200.879     144.570
  H       34.429     205.406     146.819
  H       38.782     200.585     144.258
  H       32.462     204.959     144.485
  H       32.054     206.997     145.872
  H       33.727     207.512     145.565
  P       32.594     204.460     148.567
  C       33.770     203.237     150.519
  O       33.710     203.447     149.121
  O       31.242     204.282     149.165
  O       33.258     205.881     148.860
  H       32.614     206.628     148.796
  H       34.554     202.544     150.742
  H       32.836     202.841     150.861
  H       33.965     204.167     151.011

 6  7  8  9  10  11  12  13  14  15  26  29  33  34 0
 6-311+G(2d,p)
 ****
 36  38  39  40  41 0
 6-311+G(2d,p)
 ****
 1  2  3  4  5  16  17  18  19  20  21  22  23  24  25 0
 3-21G
 ****
 27  28  30  31  32  35  37  42  43  44  45  46  47 0
 3-21G
 ****
 48  49 0
 3-21G
 ****


