%nproc=1
%NoSave
%Mem=1900MB
#P OB98/GEN NMR

erre ene a

0 1
  C      333.253    -388.900    -167.094
  O      334.157    -387.916    -166.629
  P      335.307    -387.394    -167.639
  C      334.111    -385.108    -168.080
  O      334.567    -386.346    -168.614
  C      334.139    -384.010    -169.167
  O      335.515    -383.570    -169.369
  C      333.570    -384.450    -170.526
  O      332.861    -383.300    -171.067
  C      334.822    -384.746    -171.327
  O      334.567    -384.660    -172.737
  C      335.762    -383.653    -170.800
  N      337.170    -383.941    -171.060
  C      337.788    -383.167    -172.041
  O      337.189    -382.325    -172.725
  N      339.124    -383.420    -172.249
  C      339.861    -384.405    -171.657
  O      341.047    -384.601    -171.861
  C      339.118    -385.277    -170.708
  C      337.830    -385.003    -170.480
  O      335.495    -388.697    -168.544
  O      336.520    -386.894    -166.941
  H      334.671    -389.190    -168.724
  H      334.238    -383.751    -172.944
  H      339.597    -382.847    -172.920
  H      339.637    -386.108    -170.275
  H      337.246    -385.638    -169.810
  H      335.520    -382.675    -171.236
  H      335.200    -385.747    -171.096
  H      332.894    -385.300    -170.446
  H      333.555    -383.156    -168.786
  H      334.749    -384.783    -167.243
  H      333.093    -385.255    -167.679
  P      331.337    -383.087    -170.641
  C      331.519    -380.895    -169.202
  O      331.328    -382.302    -169.236
  O      330.939    -384.582    -170.217
  O      330.460    -382.539    -171.717
  H      331.587    -385.002    -169.639
  H      331.235    -380.544    -168.200
  H      330.867    -380.408    -169.928
  H      332.553    -380.650    -169.401
  H      332.557    -389.140    -166.318
  H      333.795    -389.780    -167.372
  H      332.723    -388.524    -167.944

 3  4  5  6  7  8  9  10  11  12  13  24  28  29  30  31  32 0
 6-311+G(2d,p)
 ****
 33  34 0
 6-311+G(2d,p)
 ****
 1  2  14  15  16  17  18  19  20  21  22  23  25  26  27 0
 3-21G
 ****
 35  36  37  38  39  40  41  42  43  44  45 0
 3-21G
 ****


