%nproc=1
%NoSave
%Mem=1900MB
#P OB98/GEN NMR

erre ene a

0 1
  C      -51.024    -350.362     383.433
  O      -50.568    -349.255     382.674
  P      -48.980    -349.064     382.507
  C      -47.103    -348.225     384.103
  O      -48.490    -348.234     383.790
  C      -46.880    -347.628     385.488
  O      -47.044    -348.630     386.513
  C      -45.480    -347.060     385.708
  O      -45.333    -345.759     385.158
  C      -45.423    -347.006     387.223
  O      -46.115    -345.840     387.705
  C      -46.179    -348.279     387.619
  N      -44.401    -351.312     391.263
  C      -45.443    -350.408     391.296
  N      -46.064    -350.248     392.489
  N      -45.848    -349.724     390.260
  C      -45.130    -349.982     389.137
  C      -44.080    -350.858     388.979
  C      -43.633    -351.595     390.141
  O      -42.680    -352.370     390.184
  N      -43.613    -350.850     387.689
  C      -44.379    -349.978     387.066
  N      -45.288    -349.391     387.910
  O      -48.857    -348.007     381.314
  O      -48.231    -350.322     382.229
  H      -45.614    -345.064     387.383
  H      -47.951    -348.020     380.947
  H      -44.122    -351.809     392.092
  H      -44.302    -349.728     386.017
  H      -46.814    -348.122     388.498
  H      -44.397    -346.948     387.607
  H      -45.761    -350.699     393.339
  H      -44.711    -347.749     385.334
  H      -46.792    -349.545     392.557
  H      -47.638    -346.852     385.650
  H      -46.571    -347.632     383.355
  H      -46.722    -349.249     384.066
  P      -43.877    -345.366     384.612
  C      -41.622    -345.137     385.887
  O      -43.031    -344.962     385.908
  O      -44.133    -343.974     383.867
  O      -43.262    -346.387     383.710
  H      -43.471    -343.835     383.167
  H      -41.184    -344.574     386.717
  H      -41.194    -344.762     384.953
  H      -41.378    -346.191     386.009
  H      -52.094    -350.361     383.458
  H      -50.644    -350.291     384.431
  H      -50.679    -351.269     382.983

 3  4  5  6  7  8  9  10  11  12  23  26  30  31 0
 6-311+G(2d,p)
 ****
 33  35  36  37  38 0
 6-311+G(2d,p)
 ****
 1  2  13  14  15  16  17  18  19  20  21  22  24  25 0
 3-21G
 ****
 27  28  29  32  34  39  40  41  42  43  44  45  46  47  48  49 0
 3-21G
 ****


