%nproc=1
%NoSave
%Mem=1900MB
#P OB98/GEN NMR

erre ene a

0 1
  C      342.824    -562.824    1090.596
  O      343.030    -564.080    1091.193
  H      341.934    -562.867    1089.967
  H      343.675    -562.575    1089.944
  H      342.691    -562.047    1091.333
  P      344.304    -564.287    1092.134
  C      342.909    -564.639    1094.286
  O      343.843    -563.784    1093.595
  C      341.504    -564.093    1094.237
  O      341.018    -564.125    1092.890
  C      340.505    -564.893    1095.117
  O      339.721    -563.975    1095.877
  C      339.631    -565.574    1094.078
  O      338.356    -565.917    1094.591
  C      339.661    -564.553    1092.938
  N      339.199    -565.141    1091.690
  C      338.374    -564.331    1090.902
  O      338.074    -563.175    1091.258
  N      337.887    -564.834    1089.722
  C      338.137    -566.047    1089.422
  N      337.598    -566.512    1088.220
  C      338.964    -566.936    1090.195
  C      339.466    -566.443    1091.328
  O      345.574    -563.693    1091.636
  O      344.406    -565.880    1092.337
  H      337.821    -566.364    1093.875
  H      345.330    -566.115    1092.603
  H      339.149    -567.988    1089.908
  H      340.121    -567.037    1092.006
  H      339.016    -563.670    1093.183
  H      340.112    -566.516    1093.760
  H      340.990    -565.613    1095.792
  H      341.533    -563.043    1094.560
  H      337.022    -565.837    1087.705
  H      343.278    -564.752    1095.343
  H      337.684    -567.455    1087.879
  H      342.962    -565.618    1093.819
  P      340.391    -563.471    1097.262
  C      339.581    -560.992    1097.292
  O      340.679    -561.899    1097.142
  O      341.835    -564.160    1097.258
  O      339.591    -563.868    1098.472
  H      341.869    -564.857    1097.943
  H      339.932    -559.987    1097.186
  H      339.145    -561.117    1098.261
  H      338.846    -561.194    1096.541

 6  7  8  9  10  11  12  13  14  15  16  26  30  31  32  33  35 0
 6-311+G(2d,p)
 ****
 37  38 0
 6-311+G(2d,p)
 ****
 1  2  3  4  5  17  18  19  20  21  22  23  24  25 0
 3-21G
 ****
 27  28  29  34  36  39  40  41  42  43  44  45  46 0
 3-21G
 ****


