%nproc=1
%NoSave
%Mem=1900MB
#P OB98/GEN NMR

erre ene a

0 1
  C     -302.592       0.548     172.128
  O     -303.569       0.834     173.118
  P     -304.687       1.955     172.866
  C     -306.260       0.126     171.970
  O     -305.653       1.388     171.713
  C     -307.699       0.314     172.441
  O     -308.450       0.986     171.401
  C     -308.415      -1.002     172.738
  O     -309.296      -0.810     173.852
  C     -309.265      -1.259     171.501
  O     -310.407      -2.074     171.814
  C     -309.589       0.172     171.057
  N     -311.521       3.044     167.262
  C     -311.415       3.265     168.589
  N     -310.912       2.447     169.542
  C     -310.440       1.315     168.993
  C     -310.475       0.953     167.656
  C     -311.050       1.872     166.764
  N     -311.143       1.652     165.406
  N     -309.924      -0.302     167.477
  C     -309.542      -0.677     168.680
  N     -309.825       0.273     169.630
  O     -304.156       3.326     172.614
  O     -305.609       1.904     174.169
  H     -310.942      -1.578     172.468
  H     -305.887       2.803     174.423
  H     -311.783       4.227     168.937
  H     -309.072      -1.618     168.920
  H     -310.464       0.569     171.584
  H     -308.665      -1.787     170.750
  H     -307.725      -1.827     172.944
  H     -307.704       0.963     173.323
  H     -305.686      -0.376     172.754
  H     -311.459       2.418     164.828
  H     -310.642       0.864     165.015
  H     -306.224      -0.486     171.065
  P     -309.615      -2.126     174.731
  C     -308.536      -1.339     176.966
  O     -308.453      -2.172     175.833
  O     -309.797      -3.339     173.876
  O     -310.929      -1.660     175.521
  H     -310.967      -0.679     175.604
  H     -307.638      -1.486     177.575
  H     -309.409      -1.611     177.570
  H     -308.598      -0.290     176.674
  H     -301.941      -0.224     172.482
  H     -302.022       1.430     171.924
  H     -303.077       0.222     171.232

 3  4  5  6  7  8  9  10  11  12  22  25  29  30  31  32 0
 6-311+G(2d,p)
 ****
 33  36  37 0
 6-311+G(2d,p)
 ****
 1  2  13  14  15  16  17  18  19  20  21  23  24  26 0
 3-21G
 ****
 27  28  34  35  38  39  40  41  42  43  44  45  46  47  48 0
 3-21G
 ****


