%nproc=1
%NoSave
%Mem=1900MB
#P OB98/GEN NMR

erre ene a

0 1
  C      541.093    -170.458     128.640
  O      541.430    -169.408     127.756
  H      540.760    -170.025     129.584
  H      541.971    -171.079     128.825
  H      540.282    -171.068     128.232
  P      541.671    -169.742     126.207
  C      540.151    -170.007     124.139
  O      540.256    -169.531     125.474
  C      538.899    -169.445     123.455
  O      537.726    -169.862     124.216
  C      538.869    -167.916     123.366
  O      538.136    -167.567     122.181
  C      538.070    -167.551     124.602
  O      537.566    -166.230     124.531
  C      537.022    -168.667     124.609
  N      536.364    -168.810     125.908
  C      535.101    -168.243     126.031
  O      534.557    -167.609     125.128
  N      534.505    -168.378     127.246
  C      535.051    -168.962     128.356
  O      534.479    -169.025     129.433
  C      536.408    -169.515     128.180
  C      536.992    -169.416     126.978
  O      542.334    -171.048     125.921
  O      542.528    -168.505     125.664
  H      538.287    -165.599     124.331
  H      543.112    -168.796     124.936
  H      533.579    -167.974     127.358
  H      536.878    -169.974     129.033
  H      537.987    -169.813     126.812
  H      536.247    -168.477     123.860
  H      538.695    -167.606     125.498
  H      539.860    -167.461     123.348
  H      538.809    -169.902     122.462
  H      540.107    -171.096     124.167
  H      541.048    -169.707     123.573
  P      538.794    -167.639     120.718
  C      539.023    -169.437     118.881
  O      538.914    -169.182     120.284
  O      540.062    -166.866     120.582
  O      537.669    -167.062     119.735
  H      538.091    -166.663     118.951
  H      539.096    -170.491     118.715
  H      539.897    -168.954     118.498
  H      538.157    -169.056     118.381

 6  7  8  9  10  11  12  13  14  15  16  26  31  32  33  34  35 0
 6-311+G(2d,p)
 ****
 36  37 0
 6-311+G(2d,p)
 ****
 1  2  3  4  5  17  18  19  20  21  22  23  24  25 0
 3-21G
 ****
 27  28  29  30  38  39  40  41  42  43  44  45 0
 3-21G
 ****


