%nproc=1
%NoSave
%Mem=1900MB
#P OB98/GEN NMR

erre ene a

0 1
  C       38.991      -7.760    -666.095
  O       39.070      -7.624    -667.493
  P       39.582      -6.305    -668.236
  C       37.549      -5.726    -669.779
  O       38.879      -6.228    -669.673
  C       36.939      -6.063    -671.151
  O       37.710      -5.378    -672.175
  C       37.028      -7.576    -671.463
  O       35.857      -8.101    -672.061
  C       38.333      -7.687    -672.237
  O       38.433      -8.871    -673.009
  C       38.349      -6.368    -673.010
  N       42.186      -6.648    -676.339
  C       40.890      -7.127    -676.457
  N       40.657      -7.946    -677.512
  N       39.949      -6.865    -675.593
  C       40.363      -6.139    -674.534
  C       41.615      -5.603    -674.308
  C       42.645      -5.881    -675.287
  O       43.828      -5.567    -675.168
  N       41.694      -4.973    -673.086
  C       40.500      -5.160    -672.563
  N       39.668      -5.887    -673.383
  O       41.050      -6.020    -668.148
  O       38.815      -5.148    -667.413
  H       38.400      -9.633    -672.389
  H       39.404      -4.370    -667.385
  H       42.896      -6.960    -676.995
  H       40.192      -4.824    -671.575
  H       37.782      -6.448    -673.934
  H       39.157      -7.717    -671.498
  H       41.404      -8.279    -678.111
  H       37.112      -8.138    -670.524
  H       39.802      -8.499    -677.489
  H       35.919      -5.679    -671.190
  H       37.620      -4.639    -669.646
  H       36.922      -6.120    -668.967
  P       34.396      -8.268    -671.432
  C       34.405     -10.838    -671.353
  O       33.794      -9.678    -671.895
  O       33.488      -7.213    -672.226
  O       34.314      -8.007    -669.962
  H       32.861      -6.791    -671.606
  H       34.092     -11.710    -671.943
  H       34.063     -10.977    -670.320
  H       35.494     -10.755    -671.370
  H       38.619      -8.733    -665.852
  H       38.330      -7.017    -665.701
  H       39.964      -7.633    -665.669

 3  4  5  6  7  8  9  10  11  12  23  26  30  31 0
 6-311+G(2d,p)
 ****
 33  35  36  37  38 0
 6-311+G(2d,p)
 ****
 1  2  13  14  15  16  17  18  19  20  21  22  24  25 0
 3-21G
 ****
 27  28  29  32  34  39  40  41  42  43  44  45  46  47  48  49 0
 3-21G
 ****


