%nproc=1
%NoSave
%Mem=1900MB
#P OB98/GEN NMR

erre ene a

0 1
  C      125.384     213.612     184.094
  O      124.551     214.461     184.858
  H      124.819     212.743     183.747
  H      125.748     214.164     183.223
  H      126.241     213.286     184.691
  P      123.881     213.826     186.170
  C      125.500     214.868     187.920
  O      125.078     213.699     187.233
  C      125.628     214.561     189.407
  O      126.375     215.607     190.070
  C      124.292     214.480     190.136
  O      123.664     213.217     189.985
  C      124.738     214.706     191.570
  O      125.332     213.504     192.090
  C      125.807     215.796     191.394
  N      126.287     220.321     193.741
  C      127.009     219.181     193.821
  N      126.829     218.028     193.146
  C      125.783     218.123     192.311
  C      124.958     219.219     192.117
  C      125.240     220.362     192.885
  N      124.486     221.513     192.831
  N      123.976     218.930     191.190
  C      124.218     217.689     190.820
  N      125.280     217.148     191.494
  O      123.603     212.304     185.758
  O      122.667     214.524     186.686
  H      126.037     213.242     191.467
  H      122.997     211.884     186.397
  H      127.840     219.201     194.520
  H      123.650     217.137     190.083
  H      126.621     215.710     192.122
  H      123.910     214.969     192.233
  H      123.622     215.295     189.838
  H      126.195     213.628     189.518
  H      124.757     215.659     187.770
  H      124.676     222.221     193.523
  H      123.622     221.503     192.310
  H      126.463     215.198     187.519
  P      122.244     213.006     190.705
  C      121.324     214.777     189.041
  O      121.376     214.319     190.387
  O      122.600     213.166     192.255
  O      121.584     211.701     190.405
  H      122.022     212.604     192.804
  H      120.713     215.653     188.986
  H      120.907     214.012     188.420
  H      122.313     215.010     188.705

 6  7  8  9  10  11  12  13  14  15  25  28  32  33  34  35 0
 6-311+G(2d,p)
 ****
 36  39  40 0
 6-311+G(2d,p)
 ****
 1  2  3  4  5  16  17  18  19  20  21  22  23  24 0
 3-21G
 ****
 26  27  29  30  31  37  38  41  42  43  44  45  46  47 0
 3-21G
 ****
 48 0
 3-21G
 ****


