%nproc=1
%NoSave
%Mem=1900MB
#P OB98/GEN NMR

erre ene a

0 1
  C      109.487     -62.191    -183.647
  O      108.518     -61.172    -183.495
  H      110.380     -61.914    -183.080
  H      109.759     -62.284    -184.704
  H      109.113     -63.148    -183.270
  P      107.022     -61.521    -183.966
  C      107.352     -60.407    -186.290
  O      107.057     -61.597    -185.570
  C      106.280     -60.142    -187.338
  O      106.160     -61.265    -188.240
  C      104.882     -59.901    -186.761
  O      104.711     -58.553    -186.346
  C      104.019     -60.216    -187.972
  O      104.057     -59.103    -188.895
  C      104.754     -61.419    -188.583
  N      103.560     -66.167    -189.923
  C      103.941     -65.096    -190.707
  N      104.008     -65.315    -192.039
  N      104.232     -63.909    -190.233
  C      104.096     -63.829    -188.887
  C      103.721     -64.817    -188.005
  C      103.416     -66.124    -188.540
  O      103.087     -67.110    -187.886
  N      103.695     -64.362    -186.709
  C      104.039     -63.092    -186.813
  N      104.290     -62.718    -188.114
  O      106.232     -60.156    -183.664
  O      106.387     -62.680    -183.270
  H      103.580     -59.380    -189.699
  H      105.715     -60.265    -182.845
  H      103.339     -67.053    -190.343
  H      104.131     -62.404    -185.985
  H      104.685     -61.437    -189.682
  H      102.973     -60.379    -187.716
  H      103.777     -66.195    -192.475
  H      104.653     -60.612    -185.953
  H      104.287     -64.544    -192.634
  H      106.598     -59.277    -187.941
  H      108.329     -60.521    -186.788
  H      107.407     -59.567    -185.588
  P      103.498     -58.213    -185.350
  C      101.808     -57.913    -187.293
  O      102.141     -58.619    -186.104
  O      103.474     -56.615    -185.359
  O      103.648     -58.746    -183.960
  H      103.760     -56.272    -184.487
  H      100.885     -58.287    -187.683
  H      102.583     -58.049    -188.018
  H      101.705     -56.871    -187.072

 6  7  8  9  10  11  12  13  14  15  26  29  33  34 0
 6-311+G(2d,p)
 ****
 36  38  39  40  41 0
 6-311+G(2d,p)
 ****
 1  2  3  4  5  16  17  18  19  20  21  22  23  24  25 0
 3-21G
 ****
 27  28  30  31  32  35  37  42  43  44  45  46  47 0
 3-21G
 ****
 48  49 0
 3-21G
 ****


