%nproc=1
%NoSave
%Mem=1900MB
#P OB98/GEN NMR

erre ene a

0 1
  C      288.241     926.299     585.117
  O      289.073     927.278     584.524
  H      288.654     925.311     584.905
  H      287.231     926.360     584.702
  H      288.205     926.441     586.207
  P      288.650     928.809     584.743
  C      289.813     931.049     584.106
  O      289.978     929.694     584.482
  C      291.143     931.783     584.252
  O      291.468     931.933     585.648
  C      292.327     931.041     583.650
  O      292.390     931.184     582.233
  C      293.487     931.702     584.378
  O      293.872     932.928     583.748
  C      292.916     931.964     585.766
  N      296.497     930.911     589.250
  C      296.269     931.999     588.500
  N      295.280     932.214     587.595
  C      294.466     931.146     587.538
  C      294.568     929.964     588.252
  C      295.642     929.846     589.148
  N      295.896     928.732     589.888
  N      293.555     929.093     587.882
  C      292.849     929.740     586.984
  N      293.360     930.983     586.739
  O      288.432     928.909     586.323
  O      287.442     929.247     583.980
  H      294.177     932.692     582.850
  H      287.475     928.853     586.529
  H      296.982     932.817     588.619
  H      291.978     929.338     586.469
  H      293.191     932.949     586.154
  H      294.365     931.037     584.380
  H      292.298     929.967     583.921
  H      291.058     932.787     583.806
  H      289.072     931.522     584.754
  H      289.457     931.089     583.067
  H      296.717     928.705     590.467
  H      295.330     927.911     589.741
  P      293.212     930.083     581.414
  C      293.454     929.470     578.878
  O      292.734     930.165     579.893
  O      292.599     928.683     581.920
  O      294.692     930.133     581.592
  H      293.311     928.001     581.948
  H      292.989     929.642     577.930
  H      293.450     928.422     579.092
  H      294.463     929.825     578.850

 6  7  8  9  10  11  12  13  14  15  25  28  32  33  34  35 0
 6-311+G(2d,p)
 ****
 36  37  40 0
 6-311+G(2d,p)
 ****
 1  2  3  4  5  16  17  18  19  20  21  22  23  24 0
 3-21G
 ****
 26  27  29  30  31  38  39 41  42  43  44  45  46  47  48 0
 3-21G
 ****


