%nproc=1
%NoSave
%Mem=1900MB
#P OB98/GEN NMR

erre ene a

0 1
  C       81.425      20.690       7.344
  O       82.604      19.941       7.041
  P       82.448      18.343       7.056
  C       83.280      16.428       8.591
  O       82.971      17.809       8.478
  C       83.372      15.993      10.057
  O       84.520      16.606      10.714
  C       82.137      16.357      10.888
  O       81.955      15.309      11.850
  C       82.576      17.618      11.609
  O       81.757      17.886      12.744
  C       84.028      17.253      11.909
  N       85.100      20.584      15.548
  C       84.123      19.610      15.493
  N       83.350      19.467      16.591
  N       83.924      18.839      14.455
  C       84.799      19.068      13.446
  C       85.817      19.991      13.385
  C       86.005      20.858      14.529
  O       86.857      21.732      14.630
  N       86.511      19.899      12.201
  C       85.860      18.964      11.529
  N       84.854      18.394      12.258
  O       83.575      17.858       6.027
  O       81.091      17.869       6.657
  H       82.038      18.751      13.113
  H       83.173      17.648       5.164
  H       85.199      21.160      16.366
  H       86.092      18.647      10.526
  H       84.115      16.544      12.744
  H       82.521      18.479      10.931
  H       83.482      19.994      17.443
  H       81.222      16.498      10.305
  H       82.653      18.733      16.593
  H       83.526      14.907      10.082
  H       84.230      16.217       8.096
  H       82.522      15.848       8.053
  P       80.504      14.643      11.966
  C       78.523      14.811      13.622
  O       79.889      15.080      13.377
  O       80.835      13.088      12.169
  O       79.626      14.851      10.776
  H       80.186      12.550      11.677
  H       78.370      14.718      14.700
  H       78.199      13.885      13.140
  H       77.918      15.642      13.250
  H       81.647      21.736       7.305
  H       81.083      20.435       8.325
  H       80.663      20.460       6.629

 3  4  5  6  7  8  9  10  11  12  23  26  30  31 0
 6-311+G(2d,p)
 ****
 33  35  36  37  38 0
 6-311+G(2d,p)
 ****
 1  2  13  14  15  16  17  18  19  20  21  22  24  25 0
 3-21G
 ****
 27  28  29  32  34  39  40  41  42  43  44  45  46  47  48  49 0
 3-21G
 ****


