%nproc=1
%NoSave
%Mem=1900MB
#P OB98/GEN NMR

erre ene a

0 1
  C     -288.791       5.190     678.595
  O     -288.205       6.440     678.905
  H     -289.231       4.775     679.503
  H     -288.034       4.496     678.225
  H     -289.579       5.317     677.842
  P     -287.479       7.209     677.698
  C     -289.499       8.825     677.539
  O     -288.091       8.695     677.683
  C     -290.048       9.840     678.551
  O     -290.203       9.234     679.855
  C     -289.158      11.067     678.739
  O     -289.393      12.034     677.723
  C     -289.600      11.553     680.112
  O     -290.827      12.309     680.034
  C     -289.831      10.226     680.858
  N     -286.930      11.115     684.897
  C     -288.065      11.753     684.460
  N     -288.471      12.831     685.174
  N     -288.753      11.387     683.406
  C     -288.220      10.319     682.768
  C     -287.103       9.592     683.116
  C     -286.367       9.992     684.299
  O     -285.383       9.433     684.774
  N     -286.890       8.560     682.232
  C     -287.849       8.693     681.335
  N     -288.673       9.760     681.613
  O     -288.108       6.538     676.387
  O     -285.986       7.122     677.694
  H     -291.575      11.700     679.920
  H     -287.449       6.557     675.674
  H     -286.454      11.435     685.722
  H     -287.995       8.048     680.475
  H     -290.670      10.288     681.577
  H     -288.866      12.197     680.576
  H     -287.826      13.352     685.769
  H     -288.093      10.779     678.776
  H     -289.295      13.324     684.858
  H     -291.047      10.138     678.206
  H     -289.969       7.850     677.737
  H     -289.734       9.144     676.525
  P     -288.111      12.763     677.080
  C     -289.537      13.808     675.179
  O     -288.666      14.040     676.283
  O     -287.652      11.760     675.918
  O     -287.001      13.048     678.051
  H     -286.729      11.972     675.645
  H     -289.824      14.744     674.748
  H     -290.409      13.288     675.516
  H     -289.031      13.217     674.444

 6  7  8  9  10  11  12  13  14  15  26  29  33  34 0
 6-311+G(2d,p)
 ****
 36  38  39  40  41 0
 6-311+G(2d,p)
 ****
 1  2  3  4  5  16  17  18  19  20  21  22  23  24  25 0
 3-21G
 ****
 27  28  30  31  32  35  37  42  43  44  45  46  47 0
 3-21G
 ****
 48  49 0
 3-21G
 ****


