%nproc=1
%NoSave
%Mem=1900MB
#P OB98/GEN NMR

erre ene a

0 1
  C      163.346      59.500      18.109
  O      162.966      58.238      17.600
  H      163.896      60.041      17.334
  H      163.997      59.375      18.979
  H      162.462      60.081      18.385
  P      162.106      57.298      18.574
  C      163.799      55.360      18.943
  O      162.605      55.797      18.305
  C      163.695      53.873      19.271
  O      164.826      53.479      20.081
  C      162.460      53.497      20.082
  O      161.303      53.399      19.271
  C      162.895      52.166      20.683
  O      162.693      51.084      19.766
  C      164.396      52.381      20.916
  N      165.340      50.266      25.455
  C      165.141      49.729      24.232
  N      164.913      50.366      23.064
  C      164.912      51.698      23.246
  C      165.093      52.388      24.432
  C      165.320      51.614      25.581
  N      165.488      52.159      26.831
  N      164.977      53.748      24.223
  C      164.739      53.876      22.933
  N      164.697      52.665      22.304
  O      160.648      57.336      17.911
  O      162.082      57.716      20.005
  H      163.225      50.335      20.097
  H      160.109      58.022      18.347
  H      165.164      48.643      24.187
  H      164.584      54.815      22.416
  H      164.989      51.505      20.628
  H      162.330      51.935      21.586
  H      162.305      54.218      20.894
  H      163.733      53.305      18.333
  H      163.941      55.924      19.871
  H      164.647      55.550      18.277
  H      165.623      51.542      27.616
  H      165.368      53.156      26.952
  P      160.076      54.385      19.567
  C      159.062      52.531      21.082
  O      158.840      53.489      20.060
  O      159.636      54.870      18.108
  O      160.401      55.532      20.463
  H      159.994      55.758      17.922
  H      158.147      52.020      21.296
  H      159.409      53.025      21.965
  H      159.797      51.825      20.756

 6  7  8  9  10  11  12  13  14  15  25  28  32  33  34  35 0
 6-311+G(2d,p)
 ****
 36  37  40 0
 6-311+G(2d,p)
 ****
 1  2  3  4  5  16  17  18  19  20  21  22  23  24 0
 3-21G
 ****
 26  27  29  30  31  38  39 41  42  43  44  45  46  47  48 0
 3-21G
 ****


