%nproc=1
%NoSave
%Mem=1900MB
#P OB98/GEN NMR

erre ene a

0 1
  C     -883.731     876.693     -14.986
  O     -883.443     876.437     -16.355
  P     -882.886     877.602     -17.313
  C     -885.106     877.910     -18.569
  O     -884.172     878.493     -17.667
  C     -885.658     878.977     -19.518
  O     -885.934     880.176     -18.758
  C     -884.713     879.422     -20.631
  O     -884.728     878.585     -21.788
  C     -885.310     880.775     -20.993
  O     -886.475     880.591     -21.814
  C     -885.712     881.324     -19.616
  N     -883.219     885.763     -20.095
  C     -884.205     885.199     -20.818
  N     -884.807     884.000     -20.640
  C     -884.316     883.390     -19.554
  C     -883.318     883.837     -18.707
  C     -882.759     885.092     -19.004
  N     -881.763     885.677     -18.239
  N     -883.072     882.916     -17.701
  C     -883.924     881.941     -17.934
  N     -884.701     882.185     -19.029
  O     -882.094     877.107     -18.482
  O     -882.049     878.546     -16.336
  H     -886.170     880.270     -22.683
  H     -881.450     879.128     -16.869
  H     -884.557     885.789     -21.666
  H     -884.011     881.039     -17.340
  H     -886.656     881.882     -19.647
  H     -884.623     881.413     -21.544
  H     -883.694     879.567     -20.259
  H     -886.605     878.614     -19.927
  H     -885.941     877.505     -17.982
  H     -881.515     886.635     -18.466
  H     -881.537     885.256     -17.352
  H     -884.648     877.090     -19.117
  P     -883.410     878.592     -22.717
  C     -883.994     880.902     -23.785
  O     -883.099     880.130     -23.016
  O     -883.488     877.703     -23.894
  O     -882.254     878.177     -21.680
  H     -882.061     878.828     -20.986
  H     -883.691     881.947     -23.745
  H     -885.017     880.819     -23.394
  H     -883.973     880.575     -24.831
  H     -884.088     875.797     -14.523
  H     -884.480     877.454     -14.915
  H     -882.842     877.021     -14.490

 3  4  5  6  7  8  9  10  11  12  22  25  29  30  31  32 0
 6-311+G(2d,p)
 ****
 33  36  37 0
 6-311+G(2d,p)
 ****
 1  2  13  14  15  16  17  18  19  20  21  23  24  26 0
 3-21G
 ****
 27  28  34  35  38  39  40  41  42  43  44  45  46  47  48 0
 3-21G
 ****


