%nproc=1
%NoSave
%Mem=1900MB
#P OB98/GEN NMR

erre ene a

0 1
  C     -723.989    -535.317    -865.864
  O     -723.516    -535.703    -867.137
  H     -724.209    -534.245    -865.882
  H     -723.228    -535.509    -865.099
  H     -724.905    -535.865    -865.620
  P     -723.030    -537.230    -867.284
  C     -721.545    -538.706    -865.732
  O     -721.958    -537.399    -866.099
  C     -720.148    -538.660    -865.104
  O     -720.155    -537.818    -863.926
  C     -719.616    -540.003    -864.637
  O     -719.132    -540.821    -865.691
  C     -718.503    -539.539    -863.718
  O     -717.389    -539.079    -864.509
  C     -719.189    -538.360    -862.988
  N     -719.853    -538.776    -861.747
  C     -719.023    -539.227    -860.708
  O     -717.811    -539.271    -860.859
  N     -719.599    -539.649    -859.534
  C     -720.893    -539.601    -859.395
  N     -721.404    -540.035    -858.219
  C     -721.801    -539.127    -860.456
  C     -721.218    -538.725    -861.583
  O     -722.107    -537.197    -868.597
  O     -724.107    -538.265    -867.312
  H     -716.684    -538.849    -863.872
  H     -721.636    -538.060    -868.693
  H     -722.872    -539.112    -860.294
  H     -721.833    -538.360    -862.406
  H     -718.471    -537.572    -862.757
  H     -718.125    -540.329    -863.060
  H     -720.365    -540.546    -864.037
  H     -719.466    -538.198    -865.836
  H     -720.762    -540.418    -857.534
  H     -721.518    -539.329    -866.629
  H     -722.399    -540.181    -858.070
  H     -722.245    -539.133    -865.016
  P     -718.464    -542.227    -865.286
  C     -716.207    -542.963    -864.235
  O     -716.975    -541.901    -864.787
  O     -718.231    -542.931    -866.710
  O     -719.285    -543.069    -864.367
  H     -718.352    -543.906    -866.635
  H     -715.243    -542.595    -863.950
  H     -716.092    -543.737    -864.965
  H     -716.708    -543.356    -863.375

 6  7  8  9  10  11  12  13  14  15  16  26  30  31  32  33  35 0
 6-311+G(2d,p)
 ****
 37  38 0
 6-311+G(2d,p)
 ****
 1  2  3  4  5  17  18  19  20  21  22  23  24  25 0
 3-21G
 ****
 27  28  29  34  36  39  40  41  42  43  44  45  46 0
 3-21G
 ****


