%nproc=1
%NoSave
%Mem=1900MB
#P OB98/GEN NMR

erre ene a

0 1
  C     -348.651    -705.237    -127.489
  O     -349.885    -705.129    -128.176
  H     -347.895    -705.615    -128.186
  H     -348.739    -705.940    -126.657
  H     -348.339    -704.256    -127.121
  P     -351.158    -704.690    -127.306
  C     -351.923    -703.206    -129.302
  O     -352.280    -704.195    -128.344
  C     -353.192    -702.571    -129.873
  O     -353.876    -703.519    -130.723
  C     -354.213    -702.166    -128.815
  O     -353.883    -700.939    -128.176
  C     -355.473    -702.058    -129.658
  O     -355.574    -700.778    -130.294
  C     -355.281    -703.182    -130.692
  N     -356.119    -704.341    -130.395
  C     -357.473    -704.202    -130.704
  O     -357.954    -703.183    -131.198
  N     -358.268    -705.272    -130.387
  C     -357.863    -706.418    -129.760
  O     -358.640    -707.311    -129.453
  C     -356.427    -706.499    -129.442
  C     -355.632    -705.472    -129.762
  O     -350.674    -703.339    -126.598
  O     -351.627    -705.705    -126.319
  H     -350.500    -703.509    -125.656
  H     -356.484    -700.716    -130.640
  H     -359.249    -705.197    -130.600
  H     -356.070    -707.389    -128.944
  H     -354.572    -705.502    -129.530
  H     -355.540    -702.825    -131.696
  H     -356.362    -702.189    -129.042
  H     -354.338    -702.973    -128.086
  H     -352.902    -701.709    -130.485
  H     -351.365    -703.673    -130.123
  H     -351.292    -702.458    -128.825
  P     -354.522    -700.658    -126.731
  C     -352.848    -698.832    -125.821
  O     -354.134    -699.147    -126.372
  O     -353.580    -701.558    -125.808
  O     -355.979    -700.988    -126.669
  H     -352.694    -701.674    -126.196
  H     -352.781    -697.778    -125.651
  H     -352.083    -699.132    -126.506
  H     -352.720    -699.351    -124.894

 6  7  8  9  10  11  12  13  14  15  16  27  31  32  33  34  35 0
 6-311+G(2d,p)
 ****
 36  37 0
 6-311+G(2d,p)
 ****
 1  2  3  4  5  17  18  19  20  21  22  23  24  25 0
 3-21G
 ****
 26  28  29  30  38  39  40  41  42  43  44  45 0
 3-21G
 ****


