%nproc=1
%NoSave
%Mem=1900MB
#P OB98/GEN NMR

erre ene a

0 1
  C      280.433    -229.351     -98.177
  O      280.661    -229.509     -96.781
  P      279.404    -229.841     -95.841
  C      280.334    -232.121     -95.028
  O      279.307    -231.440     -95.741
  C      279.759    -233.261     -94.185
  O      278.755    -232.721     -93.282
  C      279.088    -234.375     -94.997
  O      279.304    -235.602     -94.289
  C      277.617    -234.011     -94.922
  O      276.772    -235.132     -95.187
  C      277.538    -233.469     -93.498
  N      274.401    -231.415     -90.021
  C      275.487    -232.208     -89.899
  N      276.274    -232.713     -90.869
  C      275.836    -232.326     -92.082
  C      274.727    -231.554     -92.369
  C      273.986    -231.080     -91.269
  N      272.883    -230.268     -91.393
  N      274.583    -231.392     -93.731
  C      275.587    -232.060     -94.259
  N      276.386    -232.616     -93.297
  O      278.159    -229.448     -96.768
  O      279.372    -229.110     -94.547
  H      277.030    -235.858     -94.592
  H      277.710    -228.662     -96.405
  H      275.765    -232.463     -88.879
  H      275.781    -232.168     -95.317
  H      277.501    -234.273     -92.751
  H      277.387    -233.234     -95.664
  H      279.452    -234.463     -96.024
  H      280.568    -233.668     -93.567
  H      280.831    -231.408     -94.362
  H      272.493    -229.856     -90.561
  H      272.681    -229.858     -92.302
  H      281.073    -232.510     -95.737
  P      279.883    -236.838     -95.136
  C      282.205    -237.407     -94.130
  O      281.474    -236.702     -95.121
  O      279.481    -236.468     -96.638
  O      279.334    -238.163     -94.727
  H      279.380    -237.286     -97.166
  H      283.165    -237.707     -94.549
  H      281.672    -238.295     -93.785
  H      282.379    -236.738     -93.276
  H      281.359    -229.135     -98.667
  H      279.748    -228.545     -98.337
  H      280.021    -230.254     -98.576

 3  4  5  6  7  8  9  10  11  12  22  25  29  30  31  32 0
 6-311+G(2d,p)
 ****
 33  36  37 0
 6-311+G(2d,p)
 ****
 1  2  13  14  15  16  17  18  19  20  21  23  24  26 0
 3-21G
 ****
 27  28  34  35  38  39  40  41  42  43  44  45  46  47  48 0
 3-21G
 ****


