%nproc=1
%NoSave
%Mem=1900MB
#P OB98/GEN NMR

erre ene a

0 1
  C       42.890     180.599      36.589
  O       42.863     180.725      35.177
  P       44.250     180.562      34.386
  C       43.320     182.438      32.793
  O       44.004     181.204      32.938
  C       42.998     182.693      31.318
  O       44.221     182.777      30.556
  C       42.178     181.597      30.650
  O       40.807     181.669      31.009
  C       42.467     181.868      29.178
  O       41.646     182.948      28.700
  C       43.945     182.303      29.221
  N       44.870     181.238      28.836
  C       44.928     180.936      27.479
  O       44.253     181.515      26.631
  N       45.783     179.923      27.131
  C       46.517     179.159      27.991
  O       47.233     178.235      27.630
  C       46.388     179.505      29.415
  C       45.585     180.511      29.766
  O       44.261     178.982      34.135
  O       45.421     181.092      35.140
  H       43.359     178.615      34.102
  H       40.746     182.583      28.590
  H       45.860     179.699      26.150
  H       46.949     178.915      30.129
  H       45.471     180.773      30.811
  H       44.108     183.158      28.554
  H       42.268     180.999      28.543
  H       42.577     180.613      30.926
  H       42.482     183.659      31.242
  H       43.954     183.243      33.173
  H       42.400     182.407      33.386
  P       40.215     180.427      31.842
  C       38.153     179.987      30.298
  O       38.640     180.406      31.553
  O       40.336     180.973      33.341
  O       40.932     179.141      31.591
  H       40.074     181.905      33.426
  H       37.103     179.702      30.406
  H       38.714     179.129      29.917
  H       38.222     180.813      29.585
  H       41.902     180.730      36.978
  H       43.537     181.345      37.001
  H       43.251     179.627      36.854

 3  4  5  6  7  8  9  10  11  12  13  24  28  29  30  31  32 0
 6-311+G(2d,p)
 ****
 33  34 0
 6-311+G(2d,p)
 ****
 1  2  14  15  16  17  18  19  20  21  22  23  25  26  27 0
 3-21G
 ****
 35  36  37  38  39  40  41  42  43  44  45 0
 3-21G
 ****


