%nproc=1
%NoSave
%Mem=1900MB
#P OB98/GEN NMR

erre ene a

0 1
  C     1551.823    -135.947    -380.611
  O     1552.276    -136.471    -379.371
  P     1553.873    -136.563    -379.149
  C     1553.309    -138.114    -377.139
  O     1554.096    -137.914    -378.295
  C     1553.279    -139.604    -376.746
  O     1552.684    -140.365    -377.801
  C     1554.662    -140.203    -376.516
  O     1555.170    -139.903    -375.230
  C     1554.343    -141.693    -376.666
  O     1553.830    -142.194    -375.407
  C     1553.264    -141.702    -377.750
  N     1554.227    -145.476    -380.996
  C     1553.699    -145.525    -379.716
  N     1553.338    -146.736    -379.244
  N     1553.519    -144.453    -378.962
  C     1553.877    -143.310    -379.573
  C     1554.419    -143.129    -380.845
  C     1554.649    -144.330    -381.640
  O     1555.177    -144.357    -382.741
  N     1554.642    -141.808    -381.105
  C     1554.201    -141.174    -380.042
  N     1553.756    -142.048    -379.071
  O     1554.153    -135.403    -378.072
  O     1554.692    -136.393    -380.376
  H     1553.366    -143.036    -375.606
  H     1555.072    -135.102    -378.146
  H     1554.326    -146.323    -381.535
  H     1554.175    -140.100    -379.932
  H     1552.450    -142.389    -377.490
  H     1555.223    -142.283    -376.895
  H     1553.320    -147.568    -379.823
  H     1555.359    -139.908    -377.313
  H     1552.913    -146.795    -378.333
  H     1552.658    -139.714    -375.849
  H     1552.270    -137.799    -377.328
  H     1553.703    -137.516    -376.325
  P     1556.619    -139.206    -375.172
  C     1556.946    -139.850    -372.678
  O     1557.402    -139.984    -374.003
  O     1556.309    -137.766    -374.547
  O     1557.312    -139.127    -376.492
  H     1557.010    -137.124    -374.826
  H     1555.855    -139.791    -372.633
  H     1557.380    -138.940    -372.244
  H     1557.286    -140.727    -372.099
  H     1550.753    -135.942    -380.626
  H     1552.188    -136.557    -381.411
  H     1552.186    -134.948    -380.730

 3  4  5  6  7  8  9  10  11  12  23  26  30  31  33  0
 6-311+G(2d,p)
 ****
 35  36  37  38 0
 6-311+G(2d,p)
 ****
 1  2  13  14  15  16  17  18  19  20  21  22  24  25  27  28  29 0
 3-21G
 ****
 32  34  39  40  41  42  43  44  45  46  47  48  49 0
 3-21G
 ****


