%nproc=1
%NoSave
%Mem=1900MB
#P OB98/GEN NMR

erre ene a

0 1
  C      590.705    -449.318    -329.150
  O      591.960    -449.696    -328.611
  P      591.950    -450.546    -327.252
  C      593.383    -452.461    -328.284
  O      593.280    -451.446    -327.284
  C      594.830    -452.942    -328.399
  O      595.685    -451.842    -328.746
  C      595.398    -453.516    -327.110
  O      594.918    -454.827    -326.893
  C      596.895    -453.442    -327.382
  O      597.350    -454.606    -328.089
  C      597.013    -452.178    -328.269
  N      597.626    -451.059    -327.569
  C      599.020    -451.106    -327.462
  O      599.647    -452.060    -327.918
  N      599.658    -450.081    -326.796
  C      598.966    -449.116    -326.280
  N      599.653    -448.130    -325.639
  C      597.493    -449.038    -326.362
  C      596.889    -450.040    -327.011
  O      590.779    -451.608    -327.494
  O      591.739    -449.745    -326.007
  H      598.293    -454.438    -328.306
  H      590.389    -451.900    -326.648
  H      596.964    -448.216    -325.921
  H      595.815    -450.066    -327.115
  H      597.611    -452.393    -329.160
  H      597.474    -453.385    -326.458
  H      595.138    -452.873    -326.261
  H      594.884    -453.687    -329.206
  H      600.659    -448.210    -325.594
  H      593.069    -452.054    -329.247
  H      599.205    -447.319    -325.230
  H      592.718    -453.290    -328.017
  P      594.133    -455.120    -325.532
  C      593.654    -457.493    -326.386
  O      594.211    -456.711    -325.345
  O      592.600    -454.913    -325.974
  O      594.494    -454.291    -324.347
  H      592.021    -454.967    -325.192
  H      593.910    -458.545    -326.211
  H      594.059    -457.190    -327.361
  H      592.562    -457.391    -326.389
  H      590.857    -448.760    -330.050
  H      590.179    -448.714    -328.440
  H      590.131    -450.195    -329.367

 3  4  5  6  7  8  9  10  11  12  13  21  23  27  28  29  30  32 0
 6-311+G(2d,p)
 ****
 34  35 0
 6-311+G(2d,p)
 ****
 1  2  14  15  16  17  18  19  20  22  24  25  26 0
 3-21G
 ****
 31  33  36  37  38  39  40  41  42  43  44  45  46 0
 3-21G
 ****


