%nproc=1
%NoSave
%Mem=1900MB
#P OB98/GEN NMR

erre ene a

0 1
  C     -198.896     -60.450      -9.599
  O     -199.069     -61.745     -10.192
  P     -199.723     -61.823     -11.653
  C     -197.859     -63.235     -12.794
  O     -199.212     -63.163     -12.371
  C     -197.293     -64.636     -12.550
  O     -196.835     -64.800     -11.193
  C     -198.307     -65.751     -12.770
  O     -198.428     -66.080     -14.145
  C     -197.657     -66.895     -12.010
  O     -196.617     -67.489     -12.812
  C     -197.045     -66.176     -10.801
  N     -197.822     -68.405      -6.252
  C     -196.906     -68.630      -7.223
  N     -196.776     -68.006      -8.415
  C     -197.707     -67.049      -8.556
  C     -198.702     -66.705      -7.653
  C     -198.741     -67.431      -6.454
  N     -199.674     -67.197      -5.467
  N     -199.480     -65.680      -8.150
  C     -198.953     -65.399      -9.326
  N     -197.886     -66.205      -9.616
  O     -198.959     -60.665     -12.452
  O     -201.201     -61.613     -11.665
  H     -195.967     -66.788     -12.998
  H     -199.566     -60.252     -13.097
  H     -196.187     -69.415      -7.019
  H     -199.307     -64.624      -9.992
  H     -196.070     -66.592     -10.517
  H     -198.362     -67.692     -11.763
  H     -199.273     -65.498     -12.317
  H     -196.437     -64.781     -13.221
  H     -197.259     -62.491     -12.263
  H     -199.623     -67.738      -4.619
  H     -200.346     -66.458      -5.598
  H     -197.804     -62.971     -13.856
  P     -199.542     -67.165     -14.545
  C     -201.002     -65.620     -16.038
  O     -200.102     -66.706     -15.974
  O     -200.741     -66.836     -13.532
  O     -199.090     -68.581     -14.436
  H     -201.243     -67.652     -13.335
  H     -201.040     -65.255     -17.066
  H     -200.681     -64.803     -15.387
  H     -202.003     -65.952     -15.744
  H     -198.451     -60.557      -8.632
  H     -199.848     -59.972      -9.503
  H     -198.259     -59.855     -10.220

 3  4  5  6  7  8  9  10  11  12  22  25  29  30  31  32 0
 6-311+G(2d,p)
 ****
 33  36  37 0
 6-311+G(2d,p)
 ****
 1  2  13  14  15  16  17  18  19  20  21  23  24  26 0
 3-21G
 ****
 27  28  34  35  38  39  40  41  42  43  44  45  46  47  48 0
 3-21G
 ****


