%nproc=1
%NoSave
%Mem=1900MB
#P OB98/GEN NMR

erre ene a

0 1
  C     -242.702      34.806     134.561
  O     -242.094      35.325     135.742
  P     -240.955      34.439     136.439
  C     -239.094      35.731     135.111
  O     -239.579      35.258     136.354
  C     -237.979      36.776     135.310
  O     -238.453      37.777     136.251
  C     -236.683      36.238     135.909
  O     -235.636      37.176     135.648
  C     -237.002      36.239     137.390
  O     -235.822      36.173     138.183
  C     -237.842      37.528     137.546
  N     -238.889      37.429     138.587
  C     -238.494      37.458     139.927
  O     -237.324      37.560     140.297
  N     -239.494      37.324     140.853
  C     -240.826      37.209     140.579
  O     -241.673      37.007     141.446
  C     -241.199      37.327     139.166
  C     -240.233      37.416     138.251
  O     -240.752      33.224     135.422
  O     -241.310      33.973     137.811
  H     -236.061      36.509     139.076
  H     -241.158      32.410     135.780
  H     -239.217      37.276     141.823
  H     -242.254      37.306     138.916
  H     -240.491      37.485     137.196
  H     -237.208      38.385     137.802
  H     -237.610      35.362     137.635
  H     -236.394      35.247     135.554
  H     -237.786      37.281     134.355
  H     -239.916      36.156     134.528
  H     -238.701      34.886     134.528
  P     -234.367      36.673     134.805
  C     -235.425      37.069     132.494
  O     -234.412      37.459     133.406
  O     -234.187      35.194     134.711
  O     -233.138      37.374     135.559
  H     -232.305      36.913     135.330
  H     -235.694      37.933     131.879
  H     -236.315      36.710     133.013
  H     -235.036      36.279     131.846
  H     -243.438      35.496     134.206
  H     -243.169      33.869     134.782
  H     -241.955      34.663     133.808

 3  4  5  6  7  8  9  10  11  12  13  23  28  29  30  31  32 0
 6-311+G(2d,p)
 ****
 33  34 0
 6-311+G(2d,p)
 ****
 1  2  14  15  16  17  18  19  20  21  22  24  25  26  27 0
 3-21G
 ****
 35  36  37  38  39  40  41  42  43  44  45 0
 3-21G
 ****


