%nproc=1
%NoSave
%Mem=1900MB
#P OB98/GEN NMR

erre ene a

0 1
  C     -205.550     -60.348     -92.471
  O     -205.015     -61.408     -91.704
  H     -206.012     -60.766     -93.369
  H     -204.761     -59.656     -92.773
  H     -206.317     -59.815     -91.901
  P     -204.219     -61.058     -90.359
  C     -202.079     -59.750     -89.749
  O     -202.997     -60.105     -90.778
  C     -200.674     -59.569     -90.334
  O     -200.087     -60.885     -90.487
  C     -200.693     -58.887     -91.711
  O     -199.837     -57.749     -91.785
  C     -200.426     -60.037     -92.675
  O     -199.831     -59.655     -93.898
  C     -199.590     -61.007     -91.833
  N     -199.661     -62.395     -92.283
  C     -198.609     -63.235     -91.928
  O     -197.640     -62.908     -91.247
  N     -198.705     -64.525     -92.385
  C     -199.711     -65.039     -93.146
  O     -199.744     -66.204     -93.520
  C     -200.782     -64.096     -93.507
  C     -200.708     -62.838     -93.067
  O     -203.837     -62.226     -89.511
  O     -205.199     -60.062     -89.577
  H     -200.399     -58.970     -94.304
  H     -205.650     -60.544     -88.860
  H     -197.952     -65.145     -92.126
  H     -201.592     -64.466     -94.118
  H     -201.483     -62.116     -93.312
  H     -198.541     -60.711     -91.835
  H     -201.386     -60.509     -92.919
  H     -201.684     -58.468     -91.925
  H     -200.061     -59.014     -89.615
  H     -202.080     -60.550     -89.004
  H     -202.405     -58.818     -89.272
  P     -200.334     -56.234     -91.762
  C     -201.416     -54.582     -93.490
  O     -200.821     -55.847     -93.237
  O     -199.430     -55.268     -91.074
  O     -201.706     -56.305     -90.916
  H     -201.780     -55.459     -90.432
  H     -201.673     -54.510     -94.526
  H     -200.724     -53.806     -93.239
  H     -202.299     -54.478     -92.895

 6  7  8  9  10  11  12  13  14  15  16  26  31  32  33  34  35 0
 6-311+G(2d,p)
 ****
 36  37 0
 6-311+G(2d,p)
 ****
 1  2  3  4  5  17  18  19  20  21  22  23  24  25 0
 3-21G
 ****
 27  28  29  30  38  39  40  41  42  43  44  45 0
 3-21G
 ****


