%nproc=1
%NoSave
%Mem=1900MB
#P OB98/GEN NMR

erre ene a

0 1
  C      160.031     289.347    -193.635
  O      160.795     290.091    -194.564
  H      160.180     289.767    -192.640
  H      160.359     288.303    -193.633
  H      158.966     289.402    -193.885
  P      160.576     289.749    -196.118
  C      159.031     291.848    -196.442
  O      159.188     290.441    -196.522
  C      158.965     292.468    -197.842
  O      157.821     291.911    -198.542
  C      158.814     293.989    -197.835
  O      159.543     294.520    -198.947
  C      157.329     294.196    -198.065
  O      157.040     295.483    -198.609
  C      157.001     293.009    -198.988
  N      155.581     292.665    -198.968
  C      154.766     293.297    -199.909
  O      155.244     294.117    -200.695
  N      153.422     293.028    -199.913
  C      152.918     292.241    -199.012
  N      151.578     292.030    -199.055
  C      153.735     291.581    -197.972
  C      155.045     291.827    -198.019
  O      160.222     288.189    -196.061
  O      161.738     290.089    -196.996
  H      156.125     295.471    -198.964
  H      159.592     287.961    -195.361
  H      153.271     290.940    -197.239
  H      155.719     291.379    -197.298
  H      157.283     293.238    -200.026
  H      156.785     294.100    -197.121
  H      159.169     294.449    -196.911
  H      159.859     292.162    -198.398
  H      151.054     292.519    -199.771
  H      159.864     292.295    -195.889
  H      151.070     291.483    -198.377
  H      158.107     292.055    -195.893
  P      160.789     295.497    -198.683
  C      162.437     293.514    -198.485
  O      161.925     294.699    -197.884
  O      160.445     296.845    -198.137
  O      161.435     295.642    -200.146
  H      161.700     296.574    -200.264
  H      163.183     293.085    -197.849
  H      162.871     293.754    -199.433
  H      161.641     292.812    -198.625

 6  7  8  9  10  11  12  13  14  15  16  26  30  31  32  33  35 0
 6-311+G(2d,p)
 ****
 37  38 0
 6-311+G(2d,p)
 ****
 1  2  3  4  5  17  18  19  20  21  22  23  24  25 0
 3-21G
 ****
 27  28  29  34  36  39  40  41  42  43  44  45  46 0
 3-21G
 ****


