%nproc=1
%NoSave
%Mem=1900MB
#P OB98/GEN NMR

erre ene a

0 1
  C     -899.003    -898.370    -898.680
  O     -898.283    -897.460    -899.500
  P     -898.123    -895.960    -898.960
  C     -895.513    -895.970    -898.930
  O     -896.723    -895.910    -898.160
  C     -894.353    -895.360    -898.170
  O     -894.623    -893.960    -897.950
  C     -894.083    -896.000    -896.800
  O     -892.653    -896.040    -896.600
  C     -894.693    -895.030    -895.830
  O     -894.083    -895.140    -894.530
  C     -894.453    -893.690    -896.550
  N     -895.373    -892.650    -896.080
  C     -894.813    -891.480    -895.570
  O     -893.593    -891.390    -895.460
  N     -895.643    -890.460    -895.170
  C     -896.923    -890.650    -895.170
  N     -897.713    -889.610    -894.750
  C     -897.553    -891.940    -895.570
  C     -896.733    -892.860    -896.040
  O     -899.203    -895.880    -897.790
  O     -898.323    -894.890    -900.000
  H     -894.473    -894.420    -893.970
  H     -899.573    -894.970    -897.720
  H     -898.643    -892.040    -895.530
  H     -897.103    -893.810    -896.380
  H     -893.413    -893.350    -896.380
  H     -895.753    -895.230    -895.720
  H     -894.473    -897.020    -896.720
  H     -893.453    -895.430    -898.800
  H     -897.253    -888.770    -894.460
  H     -895.653    -895.410    -899.860
  H     -898.723    -889.660    -894.720
  H     -895.323    -897.020    -899.180
  P     -892.073    -897.140    -895.600
  C     -892.433    -899.010    -897.340
  O     -892.763    -898.510    -896.050
  O     -892.873    -896.800    -894.240
  O     -890.593    -897.170    -895.360
  H     -892.553    -897.370    -893.530
  H     -892.853    -900.000    -897.450
  H     -891.353    -899.060    -897.460
  H     -892.853    -898.340    -898.110
  H     -899.035    -899.329    -899.154
  H     -900.000    -898.009    -898.537
  H     -898.516    -898.457    -897.731

 3  4  5  6  7  8  9  10  11  12  13  21  23  27  28  29  30  32 0
 6-311+G(2d,p)
 ****
 34  35 0
 6-311+G(2d,p)
 ****
 1  2  14  15  16  17  18  19  20  22  24  25  26 0
 3-21G
 ****
 31  33  36  37  38  39  40  41  42  43  44  45  46 0
 3-21G
 ****


