%nproc=1
%NoSave
%Mem=1900MB
#P OB98/GEN NMR

erre ene a

0 1
  C      237.302    -112.292    -112.075
  O      237.642    -113.619    -111.666
  P      237.100    -114.079    -110.227
  C      234.891    -114.949    -111.278
  O      236.013    -115.238    -110.454
  C      233.769    -115.957    -111.030
  O      232.537    -115.577    -111.676
  C      234.090    -117.358    -111.534
  O      234.932    -118.025    -110.610
  C      232.700    -117.976    -111.635
  O      232.265    -118.496    -110.363
  C      231.827    -116.784    -112.058
  N      229.143    -118.909    -115.797
  C      229.337    -119.330    -114.494
  N      228.706    -120.469    -114.131
  N      230.081    -118.694    -113.630
  C      230.650    -117.571    -114.130
  C      230.510    -117.036    -115.392
  C      229.686    -117.754    -116.342
  O      229.465    -117.410    -117.496
  N      231.192    -115.852    -115.513
  C      231.841    -115.742    -114.367
  N      231.496    -116.723    -113.470
  O      236.234    -112.824    -109.742
  O      238.188    -114.403    -109.257
  H      232.209    -117.762    -109.722
  H      236.685    -112.374    -109.001
  H      228.566    -119.443    -116.426
  H      232.544    -114.959    -114.128
  H      230.871    -116.778    -111.519
  H      232.681    -118.818    -112.332
  H      228.116    -121.007    -114.746
  H      234.551    -117.305    -112.528
  H      228.828    -120.789    -113.179
  H      233.585    -115.987    -109.946
  H      235.183    -114.972    -112.328
  H      234.554    -113.928    -111.066
  P      236.249    -118.739    -111.180
  C      238.125    -116.947    -111.060
  O      237.510    -118.068    -110.456
  O      236.335    -118.194    -112.685
  O      236.209    -120.231    -111.148
  H      236.551    -118.933    -113.286
  H      238.559    -116.318    -110.280
  H      237.409    -116.352    -111.637
  H      238.925    -117.289    -111.725
  H      237.715    -112.100    -113.043
  H      237.699    -111.589    -111.372
  H      236.237    -112.193    -112.116

 3  4  5  6  7  8  9  10  11  12  23  26  30  31 0
 6-311+G(2d,p)
 ****
 33  35  36  37  38 0
 6-311+G(2d,p)
 ****
 1  2  13  14  15  16  17  18  19  20  21  22  24  25 0
 3-21G
 ****
 27  28  29  32  34  39  40  41  42  43  44  45  46  47  48  49 0
 3-21G
 ****


