%nproc=1
%NoSave
%Mem=1900MB
#P OB98/GEN NMR

erre ene a

0 1
  C      153.579    -433.607    -235.568
  O      153.559    -434.144    -234.246
  P      152.179    -434.160    -233.436
  C      152.386    -436.703    -233.113
  O      151.549    -435.630    -233.539
  C      151.651    -437.601    -232.109
  O      150.531    -438.277    -232.728
  C      152.522    -438.704    -231.538
  O      153.431    -438.170    -230.591
  C      151.478    -439.653    -230.988
  O      151.026    -439.236    -229.693
  C      150.333    -439.523    -232.020
  N      150.245    -440.655    -232.936
  C      149.574    -441.786    -232.446
  O      149.127    -441.797    -231.300
  N      149.437    -442.868    -233.274
  C      149.926    -442.838    -234.473
  N      149.763    -443.943    -235.245
  C      150.651    -441.672    -235.009
  C      150.783    -440.627    -234.194
  O      151.239    -433.038    -233.743
  O      152.662    -434.089    -231.908
  H      151.812    -439.254    -229.102
  H      151.979    -433.628    -231.378
  H      151.049    -441.702    -236.019
  H      151.299    -439.738    -234.517
  H      149.367    -439.433    -231.512
  H      151.867    -440.675    -230.866
  H      153.083    -439.200    -232.348
  H      151.264    -436.968    -231.299
  H      149.267    -444.732    -234.836
  H      153.290    -436.298    -232.651
  H      150.069    -444.000    -236.214
  H      152.708    -437.273    -233.996
  P      154.945    -438.704    -230.619
  C      155.666    -437.114    -232.542
  O      155.512    -438.448    -232.104
  O      154.765    -440.300    -230.572
  O      155.828    -438.229    -229.510
  H      155.507    -440.699    -230.078
  H      156.347    -437.103    -233.402
  H      156.105    -436.490    -231.751
  H      154.709    -436.700    -232.839
  H      154.571    -433.672    -235.964
  H      153.272    -432.582    -235.541
  H      152.910    -434.164    -236.189

 3  4  5  6  7  8  9  10  11  12  13  23  27  28  29  30  32 0
 6-311+G(2d,p)
 ****
 34  35 0
 6-311+G(2d,p)
 ****
 1  2  14  15  16  17  18  19  20  21  22  24  25  26 0
 3-21G
 ****
 31  33  36  37  38  39  40  41  42  43  44  45  46 0
 3-21G
 ****


