%nproc=1
%NoSave
%Mem=1900MB
#P OB98/GEN NMR

erre ene a

0 1
  C      -76.133    -284.166      57.357
  O      -77.273    -284.080      56.519
  P      -78.129    -282.723      56.444
  C      -79.005    -282.678      58.860
  O      -79.333    -282.888      57.493
  C      -79.620    -283.769      59.741
  O      -79.274    -283.505      61.122
  C      -81.136    -283.834      59.649
  O      -81.552    -285.202      59.744
  C      -81.621    -283.107      60.893
  O      -82.924    -283.558      61.292
  C      -80.496    -283.420      61.884
  N      -82.864    -280.574      65.441
  C      -83.324    -281.540      64.617
  N      -82.644    -282.238      63.678
  C      -81.349    -281.886      63.679
  C      -80.734    -280.918      64.462
  C      -81.553    -280.239      65.378
  N      -81.085    -279.260      66.229
  N      -79.392    -280.816      64.154
  C      -79.193    -281.717      63.217
  N      -80.343    -282.399      62.904
  O      -78.552    -282.318      55.075
  O      -77.197    -281.621      57.130
  H      -83.134    -283.119      62.147
  H      -77.278    -280.766      56.660
  H      -84.377    -281.786      64.724
  H      -78.253    -281.908      62.729
  H      -80.653    -284.390      62.382
  H      -81.686    -282.030      60.684
  H      -81.533    -283.390      58.729
  H      -79.169    -284.735      59.467
  H      -79.397    -281.705      59.166
  H      -81.715    -278.916      66.935
  H      -80.081    -279.135      66.303
  H      -77.912    -282.663      58.975
  P      -82.807    -285.623      58.826
  C      -84.003    -286.087      61.095
  O      -83.720    -286.526      59.780
  O      -82.375    -286.226      57.527
  O      -83.581    -284.225      58.694
  H      -83.376    -283.630      59.450
  H      -84.607    -286.855      61.597
  H      -84.574    -285.158      61.068
  H      -83.075    -285.940      61.657
  H      -75.700    -285.141      57.271
  H      -76.423    -283.992      58.372
  H      -75.416    -283.430      57.060

 3  4  5  6  7  8  9  10  11  12  22  25  29  30  31  32 0
 6-311+G(2d,p)
 ****
 33  36  37 0
 6-311+G(2d,p)
 ****
 1  2  13  14  15  16  17  18  19  20  21  23  24  26 0
 3-21G
 ****
 27  28  34  35  38  39  40  41  42  43  44  45  46  47  48 0
 3-21G
 ****


