%nproc=1
%NoSave
%Mem=1900MB
#P OB98/GEN NMR

erre ene a

0 1
  C     -213.830    -601.035    -406.333
  O     -215.018    -600.271    -406.291
  H     -213.147    -600.661    -405.567
  H     -213.354    -600.927    -407.310
  H     -214.030    -602.090    -406.135
  P     -216.300    -600.786    -407.104
  C     -215.979    -599.218    -409.127
  O     -215.972    -600.557    -408.660
  C     -216.460    -599.149    -410.576
  O     -217.597    -600.052    -410.740
  C     -216.920    -597.749    -411.020
  O     -216.646    -597.630    -412.419
  C     -218.417    -597.826    -410.778
  O     -219.102    -596.806    -411.474
  C     -218.705    -599.261    -411.219
  N     -219.989    -599.751    -410.722
  C     -221.128    -599.238    -411.331
  O     -221.094    -598.393    -412.224
  N     -222.327    -599.698    -410.855
  C     -222.486    -600.555    -409.809
  O     -223.585    -600.912    -409.399
  C     -221.243    -601.032    -409.168
  C     -220.071    -600.616    -409.655
  O     -217.611    -600.238    -406.656
  O     -216.241    -602.381    -406.964
  H     -220.040    -596.768    -411.188
  H     -217.143    -602.752    -406.985
  H     -223.159    -599.348    -411.290
  H     -221.342    -601.704    -408.328
  H     -219.141    -600.946    -409.208
  H     -218.720    -599.334    -412.315
  H     -218.643    -597.701    -409.715
  H     -216.436    -596.943    -410.467
  H     -215.666    -599.529    -411.231
  H     -214.958    -598.829    -409.055
  H     -216.638    -598.615    -408.487
  P     -215.386    -596.815    -412.974
  C     -216.499    -594.494    -413.118
  O     -215.499    -595.285    -412.485
  O     -215.153    -596.967    -414.449
  O     -214.133    -597.378    -412.145
  H     -213.319    -597.291    -412.675
  H     -216.479    -593.503    -412.714
  H     -217.461    -594.930    -412.946
  H     -216.309    -594.454    -414.170

 6  7  8  9  10  11  12  13  14  15  16  26  31  32  33  34  35 0
 6-311+G(2d,p)
 ****
 36  37 0
 6-311+G(2d,p)
 ****
 1  2  3  4  5  17  18  19  20  21  22  23  24  25 0
 3-21G
 ****
 27  28  29  30  38  39  40  41  42  43  44  45 0
 3-21G
 ****


