%nproc=1
%NoSave
%Mem=1900MB
#P OB98/GEN NMR

erre ene a

0 1
  C      744.286    -595.218    -261.149
  O      743.832    -594.753    -262.421
  P      743.418    -595.844    -263.527
  C      742.214    -598.094    -263.133
  O      742.163    -596.674    -262.972
  C      740.844    -598.650    -263.532
  O      739.875    -598.347    -262.486
  C      740.262    -598.047    -264.821
  O      740.570    -598.672    -266.060
  C      738.751    -598.266    -264.605
  O      738.400    -599.605    -264.985
  C      738.586    -598.113    -263.090
  N      734.561    -594.938    -263.177
  C      734.736    -596.191    -263.637
  N      735.834    -596.965    -263.571
  C      736.837    -596.321    -262.950
  C      736.812    -595.038    -262.422
  C      735.610    -594.325    -262.563
  N      735.433    -593.049    -262.090
  N      738.029    -594.724    -261.859
  C      738.781    -595.794    -262.057
  N      738.102    -596.793    -262.702
  O      744.528    -596.659    -264.085
  O      742.748    -594.937    -264.656
  H      738.666    -599.700    -265.922
  H      742.981    -595.297    -265.532
  H      733.861    -596.637    -264.123
  H      739.822    -595.876    -261.760
  H      737.898    -598.841    -262.672
  H      738.141    -597.590    -265.196
  H      740.462    -596.973    -264.878
  H      740.908    -599.744    -263.633
  H      742.534    -598.554    -262.190
  H      734.557    -592.593    -262.269
  H      736.228    -592.555    -261.689
  H      742.991    -598.313    -263.862
  P      741.653    -598.020    -267.066
  C      744.026    -598.783    -267.886
  O      742.911    -599.014    -267.043
  O      741.986    -596.584    -266.793
  O      741.004    -598.283    -268.494
  H      740.980    -599.218    -268.760
  H      744.845    -599.434    -267.565
  H      744.356    -597.732    -267.799
  H      743.770    -599.007    -268.930
  H      744.522    -594.380    -260.526
  H      745.160    -595.822    -261.281
  H      743.517    -595.800    -260.687

 3  4  5  6  7  8  9  10  11  12  22  25  29  30  31  32 0
 6-311+G(2d,p)
 ****
 33  36  37 0
 6-311+G(2d,p)
 ****
 1  2  13  14  15  16  17  18  19  20  21  23  24  26 0
 3-21G
 ****
 27  28  34  35  38  39  40  41  42  43  44  45  46  47  48 0
 3-21G
 ****


