%nproc=1
%NoSave
%Mem=1900MB
#P OB98/GEN NMR

erre ene a

0 1
  C      102.690     614.280     -87.824
  O      103.148     614.040     -86.499
  P      103.485     615.259     -85.521
  C      104.939     617.407     -85.924
  O      104.770     616.012     -86.080
  C      105.774     617.944     -87.094
  O      105.093     617.700     -88.348
  C      106.016     619.444     -86.975
  O      107.261     619.706     -86.341
  C      105.965     619.909     -88.417
  O      107.226     619.670     -89.069
  C      104.878     618.984     -89.003
  N      103.461     619.355     -88.810
  C      102.905     620.392     -89.566
  O      103.526     621.003     -90.429
  N      101.599     620.703     -89.275
  C      100.812     620.076     -88.353
  O       99.747     620.512     -87.929
  C      101.356     618.831     -87.791
  C      102.641     618.546     -88.022
  O      104.034     614.515     -84.205
  O      102.344     616.173     -85.212
  H      107.357     618.698     -89.085
  H      103.329     614.453     -83.533
  H      101.244     621.550     -89.717
  H      100.720     618.223     -87.168
  H      103.084     617.660     -87.584
  H      105.025     618.826     -90.076
  H      105.785     620.981     -88.480
  H      105.190     619.920     -86.418
  H      106.729     617.408     -87.120
  H      105.426     617.622     -84.969
  H      103.954     617.904     -85.906
  P      107.634     621.193     -85.908
  C      107.309     623.481     -87.031
  O      107.397     622.088     -87.227
  O      108.965     621.369     -85.254
  O      106.430     621.617     -84.935
  H      106.700     621.492     -83.997
  H      107.330     623.978     -88.003
  H      108.154     623.840     -86.428
  H      106.373     623.727     -86.527
  H      102.520     613.346     -88.317
  H      103.428     614.838     -88.361
  H      101.777     614.837     -87.790

 3  4  5  6  7  8  9  10  11  12  13  23  28  29  30  31  32 0
 6-311+G(2d,p)
 ****
 33  34 0
 6-311+G(2d,p)
 ****
 1  2  14  15  16  17  18  19  20  21  22  24  25  26  27 0
 3-21G
 ****
 35  36  37  38  39  40  41  42  43  44  45 0
 3-21G
 ****


