%nproc=1
%NoSave
%Mem=1900MB
#P OB98/GEN NMR

erre ene a

0 1
  C       60.149     222.571      96.562
  O       61.226     221.708      96.249
  H       59.241     221.986      96.729
  H       60.395     223.118      97.478
  H       59.987     223.292      95.755
  P       61.148     220.939      94.842
  C       60.735     218.761      96.206
  O       61.472     219.399      95.170
  C       60.726     217.246      96.001
  O       60.255     216.960      94.656
  C       62.105     216.600      96.158
  O       61.951     215.339      96.815
  C       62.563     216.385      94.727
  O       63.508     215.330      94.612
  C       61.235     216.112      94.025
  N       63.360     214.681      89.608
  C       63.397     214.140      90.842
  N       62.795     214.582      91.965
  C       62.057     215.682      91.709
  C       61.924     216.344      90.503
  C       62.628     215.807      89.411
  N       62.628     216.372      88.157
  N       61.111     217.452      90.650
  C       60.762     217.453      91.921
  N       61.310     216.401      92.602
  O       62.472     221.453      94.101
  O       59.920     221.186      94.035
  H       63.888     215.349      93.707
  H       62.313     222.340      93.724
  H       63.993     213.234      90.944
  H       60.121     218.187      92.394
  H       60.911     215.070      94.126
  H       63.026     217.303      94.346
  H       62.803     217.222      96.722
  H       59.997     216.806      96.692
  H       59.708     219.141      96.194
  H       63.209     215.954      87.447
  H       62.140     217.240      88.010
  H       61.193     219.001      97.173
  P       61.812     215.370      98.416
  C       63.719     213.911      99.395
  O       62.351     213.976      99.005
  O       60.229     215.295      98.650
  O       62.396     216.595      99.041
  H       59.948     215.992      99.270
  H       63.938     212.931      99.766
  H       63.906     214.633     100.162
  H       64.341     214.120      98.550

 6  7  8  9  10  11  12  13  14  15  25  28  32  33  34  35 0
 6-311+G(2d,p)
 ****
 36  39  40 0
 6-311+G(2d,p)
 ****
 1  2  3  4  5  16  17  18  19  20  21  22  23  24 0
 3-21G
 ****
 26  27  29  30  31  37  38  41  42  43  44  45  46  47 0
 3-21G
 ****
 48 0
 3-21G
 ****


