%nproc=1
%NoSave
%Mem=1900MB
#P OB98/GEN NMR

erre ene a

0 1
  C       72.317    -766.632    -781.218
  O       72.126    -766.948    -779.850
  P       73.077    -768.060    -779.191
  C       74.682    -766.377    -778.011
  O       73.689    -767.396    -777.861
  C       74.427    -765.232    -777.034
  O       73.180    -764.587    -777.359
  C       74.304    -765.646    -775.578
  O       75.570    -765.853    -774.966
  C       73.603    -764.444    -774.976
  O       74.562    -763.410    -774.698
  C       72.639    -764.015    -776.128
  N       68.128    -762.923    -774.145
  C       69.296    -762.188    -774.119
  N       69.266    -760.987    -773.515
  N       70.420    -762.610    -774.655
  C       70.314    -763.815    -775.265
  C       69.191    -764.634    -775.351
  C       67.971    -764.177    -774.709
  O       66.923    -764.809    -774.636
  N       69.463    -765.778    -776.053
  C       70.730    -765.631    -776.444
  N       71.283    -764.471    -775.960
  O       74.330    -768.078    -780.189
  O       72.463    -769.400    -779.039
  H       74.067    -762.683    -774.286
  H       74.781    -768.955    -780.159
  H       67.281    -762.535    -773.737
  H       71.257    -766.339    -777.063
  H       72.635    -762.938    -776.264
  H       73.079    -764.680    -774.034
  H       68.389    -760.558    -773.210
  H       73.672    -766.546    -775.475
  H       70.083    -760.421    -773.539
  H       75.247    -764.498    -777.166
  H       74.649    -765.983    -779.044
  H       75.670    -766.835    -777.839
  P       75.732    -767.117    -773.989
  C       76.632    -768.685    -775.851
  O       76.894    -768.020    -774.637
  O       74.378    -767.933    -774.259
  O       75.885    -766.751    -772.539
  H       74.146    -768.474    -773.468
  H       75.998    -768.092    -776.520
  H       76.143    -769.642    -775.643
  H       77.567    -768.888    -776.349
  H       71.615    -765.880    -781.512
  H       72.168    -767.510    -781.811
  H       73.312    -766.267    -781.364

 3  4  5  6  7  8  9  10  11  12  23  26  30  31  33  0
 6-311+G(2d,p)
 ****
 35  36  37  38 0
 6-311+G(2d,p)
 ****
 1  2  13  14  15  16  17  18  19  20  21  22  24  25  27  28  29 0
 3-21G
 ****
 32  34  39  40  41  42  43  44  45  46  47  48  49 0
 3-21G
 ****


