%nproc=1
%NoSave
%Mem=1900MB
#P OB98/GEN NMR

erre ene a

0 1
  C     -641.233     877.709    -104.414
  O     -641.266     876.792    -103.294
  P     -640.113     875.709    -103.201
  C     -641.653     873.655    -103.654
  O     -640.519     874.416    -104.063
  C     -642.168     872.801    -104.805
  O     -641.113     872.050    -105.433
  C     -643.199     871.757    -104.378
  O     -644.495     872.339    -104.282
  C     -643.156     870.805    -105.557
  O     -643.918     871.333    -106.657
  C     -641.663     870.804    -105.925
  N     -641.578     865.730    -105.106
  C     -642.475     866.545    -105.725
  N     -642.438     867.877    -105.873
  C     -641.311     868.387    -105.327
  C     -640.308     867.689    -104.687
  C     -640.472     866.302    -104.559
  N     -639.548     865.497    -103.938
  N     -639.325     868.555    -104.245
  C     -639.720     869.749    -104.650
  N     -640.923     869.700    -105.304
  O     -640.222     875.192    -101.689
  O     -638.737     876.257    -103.486
  H     -643.527     872.215    -106.886
  H     -639.330     874.973    -101.338
  H     -643.346     866.033    -106.148
  H     -639.175     870.670    -104.514
  H     -641.483     870.752    -107.007
  H     -643.572     869.824    -105.321
  H     -642.894     871.247    -103.461
  H     -642.598     873.477    -105.561
  H     -642.437     874.334    -103.295
  H     -639.713     864.494    -103.914
  H     -638.708     865.901    -103.534
  H     -641.377     873.031    -102.805
  P     -644.931     872.898    -102.823
  C     -646.051     870.817    -101.769
  O     -644.910     871.636    -101.853
  O     -646.490     873.226    -103.025
  O     -644.159     874.092    -102.383
  H     -646.757     873.977    -102.451
  H     -645.784     869.858    -101.321
  H     -646.482     870.632    -102.759
  H     -646.818     871.313    -101.120
  H     -642.064     878.380    -104.350
  H     -641.289     877.157    -105.329
  H     -640.321     878.268    -104.390

 3  4  5  6  7  8  9  10  11  12  22  25  29  30  31  32 0
 6-311+G(2d,p)
 ****
 33  36  37 0
 6-311+G(2d,p)
 ****
 1  2  13  14  15  16  17  18  19  20  21  23  24  26 0
 3-21G
 ****
 27  28  34  35  38  39  40  41  42  43  44  45  46  47  48 0
 3-21G
 ****


