%nproc=1
%NoSave
%Mem=1900MB
#P OB98/GEN NMR

erre ene a

0 1
  C     1206.813    -366.487    1239.026
  O     1206.095    -365.344    1238.625
  H     1207.832    -366.196    1239.291
  H     1206.862    -367.212    1238.201
  H     1206.336    -366.949    1239.896
  P     1204.604    -365.570    1238.085
  C     1203.661    -364.987    1240.436
  O     1203.697    -365.919    1239.362
  C     1202.229    -364.495    1240.643
  O     1201.401    -365.584    1241.182
  C     1202.076    -363.358    1241.627
  O     1202.430    -362.099    1241.062
  C     1200.599    -363.443    1241.985
  O     1199.792    -362.754    1241.027
  C     1200.338    -364.964    1241.950
  N     1200.238    -365.530    1243.292
  C     1199.369    -364.877    1244.145
  O     1198.710    -363.876    1243.818
  N     1199.302    -365.376    1245.427
  C     1200.036    -366.414    1245.918
  O     1199.969    -366.758    1247.101
  C     1200.950    -367.058    1244.967
  C     1201.034    -366.592    1243.719
  O     1204.698    -366.961    1237.299
  O     1204.068    -364.477    1237.222
  H     1204.676    -366.798    1236.334
  H     1198.868    -362.871    1241.325
  H     1198.668    -364.912    1246.055
  H     1201.562    -367.864    1245.331
  H     1201.702    -367.050    1243.010
  H     1199.409    -365.187    1241.411
  H     1200.412    -363.007    1242.955
  H     1202.684    -363.558    1242.534
  H     1201.803    -364.217    1239.662
  H     1204.294    -364.114    1240.217
  H     1204.044    -365.462    1241.351
  P     1203.825    -361.441    1241.504
  C     1205.002    -362.035    1239.213
  O     1204.958    -362.185    1240.621
  O     1204.008    -362.041    1242.978
  O     1203.825    -359.946    1241.410
  H     1203.533    -362.899    1243.089
  H     1205.819    -362.603    1238.819
  H     1205.135    -361.002    1238.968
  H     1204.085    -362.387    1238.788

 6  7  8  9  10  11  12  13  14  15  16  27  31  32  33  34  35 0
 6-311+G(2d,p)
 ****
 36  37 0
 6-311+G(2d,p)
 ****
 1  2  3  4  5  17  18  19  20  21  22  23  24  25 0
 3-21G
 ****
 26  28  29  30  38  39  40  41  42  43  44  45 0
 3-21G
 ****


