%nproc=1
%NoSave
%Mem=1900MB
#P OB98/GEN NMR

erre ene a

0 1
  C       -0.362    -895.500     587.402
  O        0.033    -895.600     588.764
  H        0.191    -894.650     586.956
  H       -1.430    -895.290     587.334
  H       -0.108    -896.400     586.857
  P       -0.545    -896.800     589.643
  C       -2.328    -895.140     590.493
  O       -2.087    -896.460     589.979
  C       -3.819    -894.940     590.736
  O       -4.237    -895.830     591.798
  C       -4.186    -893.510     591.141
  O       -5.431    -893.160     590.555
  C       -4.349    -893.590     592.649
  O       -5.228    -892.610     593.173
  C       -4.878    -895.020     592.815
  N       -6.173    -898.600     596.148
  C       -6.607    -898.390     594.840
  N       -7.551    -899.230     594.375
  N       -6.146    -897.420     594.092
  C       -5.208    -896.660     594.677
  C       -4.686    -896.760     595.960
  C       -5.202    -897.830     596.800
  O       -4.878    -898.080     597.959
  N       -3.762    -895.790     596.205
  C       -3.721    -895.070     595.087
  N       -4.586    -895.560     594.143
  O        0.276    -897.190     590.831
  O       -0.670    -898.010     588.587
  H       -5.237    -892.710     594.148
  H        0.084    -898.630     588.682
  H       -6.546    -899.340     596.696
  H       -3.106    -894.220     594.928
  H       -5.962    -895.090     592.687
  H       -3.366    -893.490     593.151
  H       -7.921    -900.000     594.917
  H       -3.400    -892.780     590.871
  H       -7.871    -899.100     593.409
  H       -4.351    -895.240     589.829
  H       -1.967    -894.410     589.764
  H       -1.746    -895.020     591.428
  P       -5.440    -892.670     589.017
  C       -5.906    -890.220     589.567
  O       -5.002    -891.130     588.971
  O       -6.686    -893.030     588.231
  O       -4.150    -893.440     588.396
  H       -4.315    -893.620     587.455
  H       -5.520    -889.226     589.482
  H       -6.031    -890.467     590.601
  H       -6.851    -890.279     589.069

 6  7  8  9  10  11  12  13  14  15  26  29  33  34 0
 6-311+G(2d,p)
 ****
 36  38  39  40  41 0
 6-311+G(2d,p)
 ****
 1  2  3  4  5  16  17  18  19  20  21  22  23  24  25 0
 3-21G
 ****
 27  28  30  31  32  35  37  42  43  44  45  46  47 0
 3-21G
 ****
 48  49 0
 3-21G
 ****


