%nproc=1
%NoSave
%Mem=1900MB
#P OB98/GEN NMR

erre ene a

0 1
  C       -7.656    -183.286     415.925
  O       -6.637    -184.091     416.480
  H       -7.324    -182.881     414.963
  H       -8.545    -183.903     415.759
  H       -7.915    -182.465     416.603
  P       -5.300    -183.343     416.961
  C       -6.551    -182.417     419.048
  O       -5.449    -183.162     418.555
  C       -6.687    -182.602     420.562
  O       -7.055    -183.984     420.831
  C       -5.392    -182.306     421.333
  O       -5.726    -181.652     422.561
  C       -4.829    -183.686     421.621
  O       -3.979    -183.696     422.763
  C       -6.107    -184.513     421.781
  N       -6.368    -189.193     423.818
  C       -6.768    -187.987     424.268
  N       -6.671    -186.785     423.664
  C       -6.126    -186.919     422.434
  C       -5.664    -188.084     421.836
  C       -5.797    -189.266     422.583
  N       -5.355    -190.491     422.140
  N       -5.138    -187.808     420.584
  C       -5.283    -186.502     420.436
  N       -5.866    -185.923     421.532
  O       -5.523    -181.856     416.398
  O       -4.017    -183.935     416.490
  H       -3.743    -184.628     422.962
  H       -5.302    -181.836     415.446
  H       -7.222    -187.983     425.257
  H       -4.971    -185.936     419.567
  H       -6.538    -184.429     422.790
  H       -4.246    -184.040     420.757
  H       -4.699    -181.687     420.772
  H       -7.519    -181.979     420.919
  H       -7.468    -182.761     418.553
  H       -5.437    -191.280     422.771
  H       -4.877    -190.559     421.257
  H       -6.399    -181.355     418.820
  P       -4.767    -180.453     423.031
  C       -6.589    -178.622     422.769
  O       -5.674    -179.274     423.640
  O       -4.238    -179.845     421.642
  O       -3.635    -180.893     423.901
  H       -3.269    -179.756     421.674
  H       -7.119    -177.866     423.310
  H       -7.284    -179.337     422.382
  H       -6.052    -178.172     421.960

 6  7  8  9  10  11  12  13  14  15  25  28  32  33  34  35 0
 6-311+G(2d,p)
 ****
 36  39  40 0
 6-311+G(2d,p)
 ****
 1  2  3  4  5  16  17  18  19  20  21  22  23  24 0
 3-21G
 ****
 26  27  29  30  31  37  38  41  42  43  44  45  46  47 0
 3-21G
 ****
 48 0
 3-21G
 ****


