%nproc=1
%NoSave
%Mem=1900MB
#P OB98/GEN NMR

erre ene a

0 1
  C      158.630     -47.917     416.213
  O      159.379     -49.103     416.043
  H      157.620     -48.043     415.813
  H      158.561     -47.697     417.283
  H      159.130     -47.083     415.713
  P      159.504     -49.655     414.542
  C      161.772     -48.683     413.747
  O      160.358     -48.567     413.726
  C      162.334     -48.499     412.344
  O      161.882     -49.562     411.481
  C      161.912     -47.209     411.650
  O      162.662     -46.093     412.106
  C      162.235     -47.550     410.203
  O      163.644     -47.371     409.964
  C      161.875     -49.040     410.125
  N      159.170     -52.176     407.087
  C      160.462     -52.203     407.490
  N      161.114     -51.333     408.286
  C      160.291     -50.353     408.698
  C      158.955     -50.194     408.372
  C      158.390     -51.160     407.520
  N      157.077     -51.113     407.105
  N      158.429     -49.080     408.991
  C      159.432     -48.573     409.680
  N      160.581     -49.304     409.531
  O      158.023     -49.480     413.954
  O      159.977     -51.065     414.416
  H      163.833     -46.424     410.105
  H      157.832     -50.222     413.349
  H      161.049     -53.041     407.123
  H      159.369     -47.690     410.302
  H      162.628     -49.608     409.564
  H      161.700     -46.925     409.483
  H      160.835     -47.040     411.751
  H      163.429     -48.564     412.407
  H      162.050     -49.675     414.119
  H      156.680     -51.927     406.663
  H      156.498     -50.354     407.443
  H      162.178     -47.926     414.423
  P      162.084     -44.629     411.773
  C      160.706     -44.295     413.947
  O      160.679     -44.538     412.545
  O      161.651     -44.750     410.238
  O      163.036     -43.507     412.000
  H      161.664     -43.868     409.818
  H      159.705     -44.260     414.322
  H      161.191     -43.360     414.138
  H      161.243     -45.081     414.435

 6  7  8  9  10  11  12  13  14  15  25  28  32  33  34  35 0
 6-311+G(2d,p)
 ****
 36  39  40 0
 6-311+G(2d,p)
 ****
 1  2  3  4  5  16  17  18  19  20  21  22  23  24 0
 3-21G
 ****
 26  27  29  30  31  37  38  41  42  43  44  45  46  47  48 0
 3-21G
 ****


