%nproc=1
%NoSave
%Mem=1900MB
#P OB98/GEN NMR

erre ene a

0 1
  C      768.465      94.394    -943.005
  O      768.011      95.284    -944.030
  P      766.445      95.263    -944.383
  C      764.873      93.180    -944.546
  O      766.123      93.773    -944.897
  C      764.802      91.742    -945.055
  O      765.667      90.897    -944.266
  C      763.416      91.109    -944.958
  O      762.570      91.487    -946.032
  C      763.762      89.658    -945.038
  O      764.011      89.267    -946.400
  C      765.055      89.585    -944.227
  N      764.521      85.630    -941.029
  C      764.641      85.674    -942.365
  N      764.782      86.772    -943.141
  C      764.731      87.894    -942.406
  C      764.579      87.982    -941.038
  C      764.472      86.781    -940.320
  N      764.369      86.714    -938.946
  N      764.562      89.310    -940.620
  C      764.749      90.004    -941.755
  N      764.837      89.191    -942.825
  O      766.366      96.139    -945.726
  O      765.550      95.779    -943.298
  H      763.176      89.379    -946.890
  H      765.462      96.502    -945.829
  H      764.663      84.726    -942.879
  H      764.778      91.087    -941.793
  H      765.782      88.878    -944.656
  H      762.962      89.001    -944.654
  H      762.949      91.331    -943.988
  H      765.150      91.726    -946.104
  H      764.081      93.778    -945.021
  H      764.510      85.827    -938.504
  H      764.559      87.573    -938.414
  H      764.759      93.222    -943.457
  P      761.047      91.019    -945.981
  C      760.002      88.635    -945.780
  O      761.081      89.448    -946.272
  O      760.405      91.634    -947.316
  O      760.325      91.455    -944.743
  H      759.454      91.773    -947.193
  H      760.030      87.661    -946.312
  H      759.053      89.117    -945.942
  H      760.137      88.444    -944.714
  H      769.520      94.511    -942.873
  H      768.251      93.385    -943.288
  H      767.963      94.621    -942.088

 3  4  5  6  7  8  9  10  11  12  22  25  29  30  31  32 0
 6-311+G(2d,p)
 ****
 33  36  37 0
 6-311+G(2d,p)
 ****
 1  2  13  14  15  16  17  18  19  20  21  23  24  26 0
 3-21G
 ****
 27  28  34  35  38  39  40  41  42  43  44  45  46  47  48 0
 3-21G
 ****


