%nproc=1
%NoSave
%Mem=1900MB
#P OB98/GEN NMR

erre ene a

0 1
  C      598.947     242.482     603.213
  O      598.529     243.761     603.642
  P      598.116     243.934     605.180
  C      595.619     243.223     604.884
  O      596.899     242.926     605.459
  C      594.518     242.906     605.883
  O      594.434     241.484     606.101
  C      594.708     243.521     607.262
  O      594.423     244.906     607.254
  C      593.757     242.664     608.101
  O      592.404     243.119     607.900
  C      593.937     241.260     607.451
  N      595.004     236.520     609.105
  C      593.956     237.036     608.430
  N      593.724     238.304     608.039
  C      594.753     239.087     608.427
  C      595.872     238.736     609.134
  C      596.003     237.389     609.475
  N      597.077     236.876     610.172
  N      596.685     239.833     609.376
  C      596.061     240.834     608.784
  N      594.882     240.444     608.185
  O      597.425     245.380     605.229
  O      599.253     243.831     606.147
  H      592.251     243.165     606.932
  H      597.598     245.818     606.076
  H      593.173     236.300     608.153
  H      596.405     241.865     608.773
  H      593.011     240.704     607.377
  H      593.968     242.694     609.160
  H      595.743     243.365     607.607
  H      593.563     243.229     605.445
  H      595.479     242.608     603.972
  H      597.007     235.929     610.514
  H      597.735     237.531     610.584
  H      595.606     244.286     604.594
  P      595.357     245.878     608.116
  C      593.820     245.551     610.134
  O      595.132     245.405     609.635
  O      594.557     247.262     608.055
  O      596.793     245.913     607.650
  H      593.612     247.153     608.270
  H      593.799     245.138     611.149
  H      593.115     244.977     609.513
  H      593.536     246.597     610.165
  H      599.189     242.517     602.171
  H      598.158     241.777     603.372
  H      599.810     242.183     603.770

 3  4  5  6  7  8  9  10  11  12  22  25  29  30  31  32 0
 6-311+G(2d,p)
 ****
 33  36  37 0
 6-311+G(2d,p)
 ****
 1  2  13  14  15  16  17  18  19  20  21  23  24  26 0
 3-21G
 ****
 27  28  34  35  38  39  40  41  42  43  44  45  46  47  48 0
 3-21G
 ****


