%nproc=1
%NoSave
%Mem=1900MB
#P OB98/GEN NMR

erre ene a

0 1
  C     -560.023     443.663     356.328
  O     -560.205     442.258     356.278
  H     -559.305     443.952     355.555
  H     -559.622     443.951     357.304
  H     -560.969     444.179     356.144
  P     -561.356     441.650     357.219
  C     -563.121     442.861     355.700
  O     -562.692     441.670     356.331
  C     -564.588     442.755     355.277
  O     -565.092     444.086     354.997
  C     -564.808     441.899     354.026
  O     -566.043     441.200     354.167
  C     -564.934     442.930     352.916
  O     -565.641     442.418     351.789
  C     -565.629     444.087     353.656
  N     -565.426     445.372     352.994
  C     -566.547     446.209     352.907
  O     -567.632     445.849     353.361
  N     -566.418     447.420     352.271
  C     -565.290     447.741     351.712
  N     -565.234     448.941     351.079
  C     -564.102     446.866     351.746
  C     -564.234     445.716     352.402
  O     -561.579     442.831     358.273
  O     -561.019     440.331     357.832
  H     -566.550     442.179     352.073
  H     -561.617     443.715     357.862
  H     -563.181     447.170     351.253
  H     -563.410     445.020     352.482
  H     -566.706     443.898     353.730
  H     -563.940     443.238     352.574
  H     -563.995     441.187     353.854
  H     -565.163     442.368     356.126
  H     -566.084     449.499     351.061
  H     -562.503     443.073     354.817
  H     -564.431     449.264     350.562
  H     -562.990     443.688     356.410
  P     -566.063     439.766     354.882
  C     -566.168     440.273     357.416
  O     -566.882     439.869     356.255
  O     -564.750     439.069     354.978
  O     -567.067     438.923     353.949
  H     -566.692     438.022     353.846
  H     -566.834     440.298     358.253
  H     -565.755     441.247     357.259
  H     -565.378     439.577     357.609

 6  7  8  9  10  11  12  13  14  15  16  26  30  31  32  33  35 0
 6-311+G(2d,p)
 ****
 37  38 0
 6-311+G(2d,p)
 ****
 1  2  3  4  5  17  18  19  20  21  22  23  24  25 0
 3-21G
 ****
 27  28  29  34  36  39  40  41  42  43  44  45  46 0
 3-21G
 ****


