%nproc=1
%NoSave
%Mem=1900MB
#P OB98/GEN NMR

erre ene a

0 1
  C     -898.982    -126.125    -245.034
  O     -898.222    -127.118    -245.700
  P     -898.102    -128.604    -245.099
  C     -896.202    -127.816    -243.534
  O     -896.602    -128.731    -244.554
  C     -894.942    -128.311    -242.831
  O     -895.212    -129.515    -242.082
  C     -893.782    -128.663    -243.771
  O     -893.162    -127.488    -244.248
  C     -892.932    -129.543    -242.881
  O     -892.092    -128.744    -242.042
  C     -893.992    -130.293    -242.035
  N     -894.212    -131.657    -242.507
  C     -893.062    -132.436    -242.684
  O     -891.942    -131.943    -242.476
  N     -893.192    -133.718    -243.143
  C     -894.392    -134.184    -243.428
  N     -894.432    -135.478    -243.886
  C     -895.612    -133.391    -243.283
  C     -895.442    -132.154    -242.827
  O     -898.552    -129.697    -246.013
  O     -898.962    -128.501    -243.746
  H     -891.592    -129.389    -241.454
  H     -899.932    -128.482    -243.941
  H     -896.562    -133.819    -243.537
  H     -896.312    -131.486    -242.697
  H     -893.682    -130.333    -240.998
  H     -892.272    -130.214    -243.458
  H     -894.192    -129.259    -244.623
  H     -894.612    -127.519    -242.117
  H     -893.552    -135.956    -244.001
  H     -897.032    -127.753    -242.808
  H     -895.282    -135.912    -244.156
  H     -896.052    -126.841    -243.970
  P     -892.952    -127.275    -245.827
  C     -891.032    -129.000    -245.988
  O     -891.422    -127.619    -246.182
  O     -893.452    -125.979    -246.365
  O     -893.762    -128.505    -246.479
  H     -894.292    -128.182    -247.226
  H     -890.112    -129.148    -246.554
  H     -891.812    -129.672    -246.325
  H     -890.832    -129.149    -244.941
  H     -898.939    -125.211    -245.588
  H     -898.583    -125.967    -244.054
  H     -900.000    -126.447    -244.957

 3  4  5  6  7  8  9  10  11  12  13  23  27  28  29  30  32 0
 6-311+G(2d,p)
 ****
 34  35 0
 6-311+G(2d,p)
 ****
 1  2  14  15  16  17  18  19  20  21  22  24  25  26 0
 3-21G
 ****
 31  33  36  37  38  39  40  41  42  43  44  45  46 0
 3-21G
 ****


