%nproc=1
%NoSave
%Mem=1900MB
#P OB98/GEN NMR

erre ene a

0 1
  C      359.788      -5.489     -79.512
  O      359.426      -5.135     -80.831
  H      359.419      -6.492     -79.275
  H      360.879      -5.491     -79.434
  H      359.382      -4.764     -78.800
  P      357.856      -5.111     -81.168
  C      355.996      -3.417     -80.501
  O      357.225      -4.037     -80.153
  C      355.084      -3.380     -79.279
  O      354.731      -4.727     -78.885
  C      355.727      -2.745     -78.051
  O      355.661      -1.329     -78.073
  C      354.859      -3.320     -76.947
  O      353.599      -2.627     -76.907
  C      354.657      -4.765     -77.434
  N      355.706      -8.288     -73.869
  C      354.586      -7.583     -74.138
  N      354.380      -6.680     -75.119
  C      355.481      -6.539     -75.872
  C      356.694      -7.194     -75.724
  C      356.787      -8.105     -74.660
  N      357.938      -8.804     -74.363
  N      357.596      -6.770     -76.681
  C      356.931      -5.889     -77.401
  N      355.658      -5.691     -76.934
  O      357.321      -6.505     -80.594
  O      357.499      -4.891     -82.599
  H      353.128      -2.846     -77.733
  H      356.429      -6.696     -80.938
  H      353.743      -7.767     -73.477
  H      357.327      -5.363     -78.261
  H      353.676      -5.168     -77.159
  H      355.313      -3.222     -75.958
  H      356.759      -3.093     -77.913
  H      354.160      -2.859     -79.554
  H      355.518      -3.994     -81.299
  H      357.953      -9.317     -73.495
  H      358.789      -8.565     -74.850
  H      356.190      -2.400     -80.858
  P      356.586      -0.526     -77.033
  C      359.134      -0.030     -76.968
  O      358.103      -0.921     -77.379
  O      356.312      -1.288     -75.652
  O      356.298       0.933     -76.940
  H      356.375      -0.673     -74.898
  H      360.084      -0.422     -77.265
  H      359.110       0.077     -75.904
  H      358.983       0.925     -77.426

 6  7  8  9  10  11  12  13  14  15  25  28  32  33  34  35 0
 6-311+G(2d,p)
 ****
 36  39  40 0
 6-311+G(2d,p)
 ****
 1  2  3  4  5  16  17  18  19  20  21  22  23  24 0
 3-21G
 ****
 26  27  29  30  31  37  38  41  42  43  44  45  46  47 0
 3-21G
 ****
 48 0
 3-21G
 ****


