%nproc=1
%NoSave
%Mem=1900MB
#P OB98/GEN NMR

erre ene a

0 1
  C      -40.830     331.965     818.350
  O      -39.981     330.980     818.901
  H      -41.758     332.006     818.942
  H      -41.093     331.723     817.315
  H      -40.353     332.952     818.389
  P      -38.681     330.553     818.064
  C      -36.982     332.094     819.259
  O      -37.440     330.746     819.065
  C      -36.695     332.371     820.740
  O      -37.911     332.227     821.519
  C      -35.701     331.385     821.372
  O      -34.374     331.540     820.894
  C      -35.995     331.542     822.856
  O      -35.286     332.620     823.472
  C      -37.507     331.851     822.851
  N      -38.303     330.731     823.370
  C      -38.237     330.505     824.732
  O      -37.562     331.191     825.500
  N      -38.971     329.444     825.206
  C      -39.689     328.570     824.441
  O      -40.288     327.615     824.917
  C      -39.697     328.843     822.982
  C      -39.011     329.885     822.517
  O      -38.507     331.235     816.737
  O      -38.808     328.964     817.960
  H      -35.363     332.493     824.438
  H      -38.225     328.605     817.250
  H      -38.948     329.279     826.202
  H      -40.257     328.167     822.351
  H      -38.998     330.098     821.459
  H      -37.720     332.730     823.489
  H      -35.732     330.635     823.410
  H      -36.008     330.370     821.092
  H      -36.350     333.407     820.842
  H      -37.769     332.772     818.909
  H      -36.080     332.267     818.662
  P      -33.382     330.300     820.724
  C      -34.358     329.877     818.337
  O      -33.179     330.039     819.141
  O      -33.588     329.132     821.624
  O      -31.964     330.973     821.129
  H      -31.425     330.300     821.574
  H      -34.075     329.713     817.318
  H      -34.958     330.760     818.402
  H      -34.919     329.038     818.691

 6  7  8  9  10  11  12  13  14  15  16  26  31  32  33  34  35 0
 6-311+G(2d,p)
 ****
 36  37 0
 6-311+G(2d,p)
 ****
 1  2  3  4  5  17  18  19  20  21  22  23  24  25 0
 3-21G
 ****
 27  28  29  30  38  39  40  41  42  43  44  45 0
 3-21G
 ****


