%nproc=1
%NoSave
%Mem=1900MB
#P OB98/GEN NMR

erre ene a

0 1
  C     -443.463    -453.212    -893.650
  O     -443.916    -452.475    -892.540
  H     -442.761    -453.977    -893.310
  H     -442.939    -452.540    -894.350
  H     -444.292    -453.709    -894.170
  P     -445.097    -451.402    -892.750
  C     -445.330    -449.214    -894.080
  O     -444.448    -450.135    -893.470
  C     -444.865    -447.771    -893.800
  O     -443.663    -447.504    -894.570
  C     -445.865    -446.692    -894.240
  O     -446.936    -446.600    -893.330
  C     -444.961    -445.476    -894.290
  O     -444.774    -444.923    -892.990
  C     -443.664    -446.077    -894.850
  N     -443.456    -445.817    -896.260
  C     -442.252    -445.224    -896.630
  O     -441.356    -444.955    -895.810
  N     -442.123    -444.925    -897.950
  C     -443.101    -444.990    -898.900
  O     -443.023    -444.473    -900.000
  C     -444.332    -445.666    -898.460
  C     -444.464    -446.045    -897.200
  O     -445.915    -451.085    -891.540
  O     -445.996    -452.056    -893.920
  H     -446.800    -452.449    -893.510
  H     -445.625    -444.501    -892.750
  H     -441.244    -444.453    -898.220
  H     -445.112    -445.822    -899.210
  H     -445.383    -446.501    -896.880
  H     -442.781    -445.663    -894.290
  H     -445.379    -444.706    -894.930
  H     -446.246    -446.933    -895.240
  H     -444.622    -447.681    -892.740
  H     -446.345    -449.341    -893.640
  H     -445.386    -449.397    -895.160
  P     -448.221    -445.673    -893.660
  C     -448.802    -443.174    -893.680
  O     -447.759    -444.150    -893.540
  O     -449.465    -446.013    -892.910
  O     -448.402    -445.875    -895.250
  H     -449.369    -446.067    -895.420
  H     -448.387    -442.192    -893.584
  H     -449.538    -443.327    -892.918
  H     -449.259    -443.275    -894.642

 6  7  8  9  10  11  12  13  14  15  16  27  31  32  33  34  35 0
 6-311+G(2d,p)
 ****
 36  37 0
 6-311+G(2d,p)
 ****
 1  2  3  4  5  17  18  19  20  21  22  23  24  25 0
 3-21G
 ****
 26  28  29  30  38  39  40  41  42  43  44  45 0
 3-21G
 ****


