%nproc=1
%NoSave
%Mem=1900MB
#P OB98/GEN NMR

erre ene a

0 1
  C     -443.120     200.703     349.012
  O     -444.481     200.494     349.346
  P     -444.918     199.266     350.279
  C     -447.107     198.965     348.965
  O     -445.898     198.350     349.399
  C     -448.262     197.963     348.994
  O     -449.492     198.654     348.670
  C     -448.098     196.823     347.992
  O     -448.622     195.624     348.566
  C     -448.990     197.222     346.825
  O     -449.435     196.071     346.094
  C     -450.098     197.999     347.545
  N     -454.514     200.101     345.967
  C     -454.256     199.122     346.865
  N     -453.062     198.597     347.217
  C     -452.063     199.225     346.573
  C     -452.173     200.237     345.631
  C     -453.471     200.679     345.325
  N     -453.735     201.682     344.417
  N     -450.923     200.609     345.163
  C     -450.081     199.848     345.823
  N     -450.718     199.001     346.695
  O     -445.455     199.645     351.613
  O     -443.599     198.369     350.399
  H     -450.003     195.545     346.698
  H     -443.522     198.000     351.301
  H     -455.123     198.703     347.366
  H     -449.005     199.860     345.707
  H     -450.883     197.329     347.917
  H     -448.427     197.866     346.137
  H     -447.060     196.670     347.683
  H     -448.362     197.571     350.014
  H     -446.968     199.319     347.941
  H     -454.684     202.014     344.357
  H     -452.956     202.233     344.076
  H     -447.329     199.825     349.604
  P     -447.584     194.402     348.722
  C     -448.460     193.263     346.548
  O     -447.375     193.853     347.231
  O     -448.026     193.421     349.756
  O     -446.234     195.191     349.074
  H     -446.258     196.112     348.734
  H     -448.113     192.920     345.569
  H     -449.254     193.998     346.398
  H     -448.845     192.411     347.106
  H     -443.035     201.567     348.386
  H     -442.745     199.847     348.491
  H     -442.552     200.853     349.906

 3  4  5  6  7  8  9  10  11  12  22  25  29  30  31  32 0
 6-311+G(2d,p)
 ****
 33  36  37 0
 6-311+G(2d,p)
 ****
 1  2  13  14  15  16  17  18  19  20  21  23  24  26 0
 3-21G
 ****
 27  28  34  35  38  39  40  41  42  43  44  45  46  47  48 0
 3-21G
 ****


