%nproc=1
%NoSave
%Mem=1900MB
#P OB98/GEN NMR

erre ene a

0 1
  C       82.445     -25.951      17.559
  O       82.892     -27.208      18.029
  H       81.572     -26.108      16.921
  H       83.225     -25.461      16.970
  H       82.155     -25.313      18.398
  P       84.216     -27.260      18.927
  C       85.432     -28.515      17.019
  O       85.446     -27.405      17.911
  C       86.812     -28.725      16.401
  O       87.229     -27.543      15.691
  C       87.913     -29.008      17.417
  O       87.818     -30.333      17.899
  C       89.146     -28.703      16.584
  O       89.452     -29.790      15.697
  C       88.672     -27.464      15.784
  N       89.085     -26.196      16.376
  C       90.324     -25.696      15.959
  O       91.005     -26.325      15.150
  N       90.760     -24.506      16.488
  C       90.013     -23.851      17.319
  N       90.502     -22.677      17.801
  C       88.687     -24.326      17.758
  C       88.294     -25.498      17.262
  O       84.218     -28.256      20.046
  O       84.373     -25.762      19.472
  H       89.627     -30.565      16.268
  H       83.958     -25.673      20.351
  H       88.093     -23.743      18.447
  H       87.331     -25.918      17.534
  H       89.057     -27.501      14.757
  H       90.031     -28.533      17.198
  H       87.865     -28.287      18.240
  H       86.734     -29.539      15.669
  H       91.409     -22.383      17.456
  H       84.700     -28.289      16.237
  H       89.947     -22.012      18.320
  H       85.110     -29.424      17.539
  P       87.829     -30.658      19.470
  C       90.397     -30.563      19.373
  O       89.226     -30.092      20.023
  O       87.542     -32.077      19.826
  O       86.771     -29.622      20.076
  H       85.847     -29.930      19.900
  H       91.259     -30.119      19.826
  H       90.361     -30.297      18.337
  H       90.453     -31.627      19.466

 6  7  8  9  10  11  12  13  14  15  16  26  30  31  32  33  35 0
 6-311+G(2d,p)
 ****
 37  38 0
 6-311+G(2d,p)
 ****
 1  2  3  4  5  17  18  19  20  21  22  23  24  25 0
 3-21G
 ****
 27  28  29  34  36  39  40  41  42  43  44  45  46 0
 3-21G
 ****


