%nproc=1
%NoSave
%Mem=1900MB
#P OB98/GEN NMR

erre ene a

0 1
  C      430.127    -891.310     820.074
  O      428.901    -890.690     820.409
  H      430.533    -890.830     819.180
  H      429.981    -892.370     819.874
  H      430.849    -891.190     820.896
  P      428.217    -891.130     821.786
  C      426.295    -892.340     820.479
  O      427.293    -892.410     821.493
  C      425.749    -893.750     820.180
  O      426.782    -894.590     819.616
  C      425.302    -894.500     821.426
  O      424.100    -893.990     821.951
  C      425.165    -895.900     820.847
  O      423.946    -896.060     820.109
  C      426.390    -895.960     819.895
  N      427.500    -896.730     820.447
  C      427.888    -897.840     819.678
  O      427.324    -898.110     818.626
  N      428.911    -898.640     820.163
  C      429.483    -898.350     821.291
  N      430.464    -899.180     821.707
  C      429.117    -897.180     822.101
  C      428.118    -896.430     821.635
  O      427.141    -889.960     822.037
  O      429.170    -891.340     822.928
  H      424.039    -895.500     819.296
  H      426.535    -889.820     821.284
  H      429.636    -896.970     823.043
  H      427.776    -895.530     822.171
  H      426.100    -896.410     818.926
  H      425.169    -896.660     821.630
  H      426.116    -894.510     822.160
  H      424.936    -893.640     819.454
  H      430.688    -900.000     821.144
  H      426.684    -891.880     819.561
  H      430.970    -899.070     822.600
  H      425.481    -891.700     820.838
  P      423.554    -894.520     823.379
  C      421.213    -894.900     822.363
  O      422.326    -895.500     823.050
  O      423.250    -893.440     824.380
  O      424.697    -895.540     823.844
  H      424.853    -896.280     823.233
  H      420.457    -895.638     822.196
  H      421.543    -894.508     821.424
  H      420.811    -894.107     822.959

 6  7  8  9  10  11  12  13  14  15  16  26  30  31  32  33  35 0
 6-311+G(2d,p)
 ****
 37  38 0
 6-311+G(2d,p)
 ****
 1  2  3  4  5  17  18  19  20  21  22  23  24  25 0
 3-21G
 ****
 27  28  29  34  36  39  40  41  42  43  44  45  46 0
 3-21G
 ****


