%nproc=1
%NoSave
%Mem=1900MB
#P OB98/GEN NMR

erre ene a

0 1
  C       55.034     396.355     277.900
  O       55.050     396.338     279.314
  H       55.991     395.974     277.532
  H       54.897     397.376     277.533
  H       54.231     395.717     277.524
  P       53.762     396.964     280.048
  C       52.587     394.637     280.208
  O       52.581     395.946     279.658
  C       51.188     394.271     280.682
  O       51.192     392.978     281.329
  C       50.602     395.237     281.706
  O       50.098     396.426     281.120
  C       49.493     394.379     282.286
  O       48.390     394.324     281.365
  C       50.197     393.007     282.391
  N       50.829     392.782     283.692
  C       50.036     392.182     284.677
  O       48.865     391.882     284.447
  N       50.577     391.970     285.924
  C       51.804     392.314     286.164
  N       52.285     392.094     287.416
  C       52.681     392.930     285.151
  C       52.134     393.134     283.952
  O       53.416     398.253     279.167
  O       53.909     397.234     281.507
  H       48.667     393.758     280.620
  H       52.559     398.642     279.465
  H       53.694     393.206     285.398
  H       52.720     393.582     283.155
  H       49.490     392.188     282.196
  H       49.104     394.767     283.231
  H       51.320     395.465     282.501
  H       50.541     394.187     279.795
  H       51.643     391.727     288.108
  H       53.290     394.619     281.049
  H       53.157     392.489     287.743
  H       52.915     393.918     279.451
  P       49.392     397.493     282.089
  C       51.482     398.989     282.477
  O       50.541     398.087     283.043
  O       48.535     396.572     283.076
  O       48.543     398.516     281.396
  H       47.674     396.986     283.283
  H       52.179     399.296     283.229
  H       50.969     399.847     282.095
  H       52.007     398.504     281.681

 6  7  8  9  10  11  12  13  14  15  16  26  30  31  32  33  35 0
 6-311+G(2d,p)
 ****
 37  38 0
 6-311+G(2d,p)
 ****
 1  2  3  4  5  17  18  19  20  21  22  23  24  25 0
 3-21G
 ****
 27  28  29  34  36  39  40  41  42  43  44  45  46 0
 3-21G
 ****


