%nproc=1
%NoSave
%Mem=1900MB
#P OB98/GEN NMR

erre ene a

0 1
  C     -208.750      70.220     237.565
  O     -209.711      69.288     238.015
  H     -209.256      70.977     236.960
  H     -207.991      69.730     236.952
  H     -208.276      70.717     238.418
  P     -209.206      68.007     238.835
  C     -210.550      68.723     240.924
  O     -210.313      67.712     239.956
  C     -211.974      68.620     241.483
  O     -212.880      69.332     240.592
  C     -212.492      67.178     241.603
  O     -213.416      67.142     242.699
  C     -213.221      67.011     240.283
  O     -214.058      65.881     240.294
  C     -213.884      68.386     240.160
  N     -214.349      68.663     238.811
  C     -215.659      68.270     238.511
  O     -216.345      67.714     239.366
  N     -216.141      68.494     237.248
  C     -215.366      68.998     236.341
  N     -215.903      69.179     235.104
  C     -213.956      69.372     236.597
  C     -213.520      69.184     237.841
  O     -207.804      68.072     239.340
  O     -209.399      66.793     237.808
  H     -214.772      65.982     240.963
  H     -208.532      66.520     237.453
  H     -213.349      69.772     235.801
  H     -212.501      69.428     238.125
  H     -214.738      68.472     240.842
  H     -212.507      66.864     239.468
  H     -211.691      66.449     241.757
  H     -212.010      69.134     242.450
  H     -216.866      68.899     234.972
  H     -210.411      69.690     240.431
  H     -215.390      69.546     234.317
  H     -209.827      68.640     241.743
  P     -213.874      65.780     243.405
  C     -212.862      65.953     245.773
  O     -214.041      66.032     244.980
  O     -213.020      64.597     243.069
  O     -215.380      65.541     242.907
  H     -215.551      64.583     242.867
  H     -213.108      66.139     246.798
  H     -212.157      66.684     245.437
  H     -212.435      64.976     245.681

 6  7  8  9  10  11  12  13  14  15  16  26  30  31  32  33  35 0
 6-311+G(2d,p)
 ****
 37  38 0
 6-311+G(2d,p)
 ****
 1  2  3  4  5  17  18  19  20  21  22  23  24  25 0
 3-21G
 ****
 27  28  29  34  36  39  40  41  42  43  44  45  46 0
 3-21G
 ****


