%nproc=1
%NoSave
%Mem=1900MB
#P OB98/GEN NMR

erre ene a

0 1
  C       18.369       9.176      27.739
  O       18.844      10.022      26.708
  P       18.161      11.461      26.522
  C       15.994      10.303      25.595
  O       16.577      11.214      26.507
  C       14.466      10.370      25.679
  O       14.058      10.118      27.051
  C       13.866      11.719      25.263
  O       12.616      11.447      24.618
  C       13.638      12.411      26.595
  O       12.665      13.440      26.519
  C       13.231      11.220      27.469
  N       13.392      11.468      28.902
  C       12.317      12.020      29.591
  O       11.251      12.330      29.064
  N       12.519      12.236      30.930
  C       13.679      12.024      31.615
  O       13.808      12.253      32.811
  C       14.794      11.486      30.824
  C       14.599      11.228      29.531
  O       18.521      11.781      24.999
  O       18.627      12.478      27.508
  H       18.515      10.991      24.433
  H       12.327      13.604      27.418
  H       11.739      12.601      31.458
  H       15.737      11.318      31.329
  H       15.407      10.832      28.927
  H       12.192      10.940      27.260
  H       14.579      12.857      26.939
  H       14.519      12.278      24.588
  H       14.052       9.562      25.063
  H       16.319       9.288      25.837
  H       16.339      10.534      24.582
  P       12.314      12.169      23.211
  C       11.269      14.239      24.424
  O       12.204      13.740      23.495
  O       10.784      11.737      22.994
  O       13.200      11.749      22.085
  H       10.235      11.883      23.781
  H       11.570      15.248      24.719
  H       11.223      13.614      25.319
  H       10.281      14.289      23.960
  H       18.922       8.260      27.732
  H       17.332       8.967      27.579
  H       18.494       9.661      28.684

 3  4  5  6  7  8  9  10  11  12  13  24  28  29  30  31  32 0
 6-311+G(2d,p)
 ****
 33  34 0
 6-311+G(2d,p)
 ****
 1  2  14  15  16  17  18  19  20  21  22  23  25  26  27 0
 3-21G
 ****
 35  36  37  38  39  40  41  42  43  44  45 0
 3-21G
 ****


