%nproc=1
%NoSave
%Mem=1900MB
#P OB98/GEN NMR

erre ene a

0 1
  C      334.667     331.868     -75.159
  O      335.987     331.640     -75.608
  H      334.190     332.636     -75.773
  H      334.099     330.939     -75.250
  H      334.671     332.178     -74.111
  P      336.979     332.902     -75.568
  C      338.919     331.913     -74.172
  O      337.807     332.795     -74.193
  C      339.725     332.119     -72.890
  O      340.234     333.479     -72.889
  C      338.913     331.913     -71.600
  O      339.605     331.031     -70.707
  C      338.859     333.293     -70.971
  O      338.885     333.257     -69.549
  C      340.092     333.974     -71.552
  N      339.375     338.035     -68.557
  C      339.825     336.792     -68.283
  N      340.086     335.786     -69.139
  C      339.867     336.173     -70.408
  C      339.432     337.413     -70.844
  C      339.160     338.368     -69.851
  N      338.648     339.618     -70.127
  N      339.316     337.438     -72.222
  C      339.635     336.217     -72.607
  N      339.961     335.415     -71.543
  O      335.988     334.137     -75.317
  O      337.791     333.092     -76.802
  H      339.177     334.135     -69.240
  H      336.056     334.751     -76.073
  H      339.993     336.574     -67.230
  H      339.603     335.851     -73.624
  H      341.002     333.709     -70.998
  H      337.938     333.794     -71.288
  H      337.910     331.521     -71.791
  H      340.592     331.450     -72.909
  H      339.565     332.114     -75.034
  H      338.374     340.195     -69.348
  H      338.383     339.829     -71.078
  H      338.560     330.882     -74.234
  P      338.880     329.629     -70.392
  C      341.055     328.273     -69.979
  O      339.896     328.447     -70.783
  O      337.741     329.550     -71.513
  O      338.301     329.547     -69.020
  H      336.867     329.440     -71.091
  H      341.632     327.455     -70.357
  H      340.762     328.067     -68.971
  H      341.644     329.166     -70.004

 6  7  8  9  10  11  12  13  14  15  25  28  32  33  34  35 0
 6-311+G(2d,p)
 ****
 36  39  40 0
 6-311+G(2d,p)
 ****
 1  2  3  4  5  16  17  18  19  20  21  22  23  24 0
 3-21G
 ****
 26  27  29  30  31  37  38  41  42  43  44  45  46  47  48 0
 3-21G
 ****


