%nproc=1
%NoSave
%Mem=1900MB
#P OB98/GEN NMR

erre ene a

0 1
  C      -33.533      -4.882    -340.103
  O      -33.939      -6.235    -340.014
  H      -34.161      -4.269    -339.453
  H      -32.496      -4.804    -339.765
  H      -33.598      -4.524    -341.135
  P      -35.317      -6.638    -340.731
  C      -36.610      -7.773    -338.788
  O      -35.853      -7.951    -339.977
  C      -36.051      -8.647    -337.663
  O      -34.792      -8.070    -337.210
  C      -36.976      -8.774    -336.442
  O      -36.891     -10.115    -335.947
  C      -36.347      -7.834    -335.429
  O      -36.652      -8.187    -334.085
  C      -34.866      -7.969    -335.776
  N      -31.642      -6.434    -332.154
  C      -32.015      -7.663    -332.567
  N      -32.844      -7.987    -333.581
  C      -33.245      -6.883    -334.238
  C      -32.946      -5.563    -333.939
  C      -32.113      -5.354    -332.826
  N      -31.781      -4.101    -332.355
  N      -33.598      -4.712    -334.809
  C      -34.299      -5.499    -335.600
  N      -34.119      -6.819    -335.294
  O      -34.813      -7.196    -342.148
  O      -36.308      -5.535    -340.887
  H      -37.596      -8.437    -334.030
  H      -34.737      -6.459    -342.781
  H      -31.603      -8.497    -332.006
  H      -34.966      -5.170    -336.383
  H      -34.411      -8.867    -335.343
  H      -36.703      -6.811    -335.609
  H      -38.021      -8.523    -336.651
  H      -35.817      -9.637    -338.078
  H      -37.649      -8.061    -338.978
  H      -31.269      -4.050    -331.485
  H      -32.212      -3.291    -332.774
  H      -36.585      -6.718    -338.500
  P      -38.074     -10.625    -334.991
  C      -36.393     -11.711    -333.320
  O      -37.540     -11.879    -334.148
  O      -39.117     -11.282    -336.012
  O      -38.705      -9.539    -334.179
  H      -40.025     -11.164    -335.686
  H      -36.169     -12.635    -332.829
  H      -36.590     -10.957    -332.587
  H      -35.559     -11.415    -333.922

 6  7  8  9  10  11  12  13  14  15  25  28  32  33  34  35 0
 6-311+G(2d,p)
 ****
 36  39  40 0
 6-311+G(2d,p)
 ****
 1  2  3  4  5  16  17  18  19  20  21  22  23  24 0
 3-21G
 ****
 26  27  29  30  31  37  38  41  42  43  44  45  46  47 0
 3-21G
 ****
 48 0
 3-21G
 ****


