%nproc=1
%NoSave
%Mem=1900MB
#P OB98/GEN NMR

erre ene a

0 1
  C      248.605     296.296     -81.443
  O      248.229     297.632     -81.166
  H      247.700     295.688     -81.520
  H      249.232     295.893     -80.643
  H      249.140     296.249     -82.394
  P      249.378     298.667     -80.733
  C      248.786     298.403     -78.237
  O      249.789     298.243     -79.236
  C      249.406     298.708     -76.874
  O      248.387     298.782     -75.853
  C      250.374     297.645     -76.378
  O      251.560     297.529     -77.131
  C      250.464     297.969     -74.895
  O      251.387     299.021     -74.622
  C      249.018     298.441     -74.597
  N      248.250     297.445     -73.862
  C      248.766     297.064     -72.629
  O      249.819     297.506     -72.168
  N      248.047     296.125     -71.945
  C      246.911     295.508     -72.385
  O      246.323     294.655     -71.732
  C      246.434     295.923     -73.714
  C      247.112     296.859     -74.381
  O      249.033     300.118     -80.880
  O      250.646     298.214     -81.597
  H      251.291     299.245     -73.675
  H      251.342     298.917     -81.604
  H      248.398     295.846     -71.040
  H      245.544     295.446     -74.100
  H      246.777     297.184     -75.364
  H      249.036     299.363     -74.002
  H      250.772     297.105     -74.302
  H      249.879     296.669     -76.452
  H      249.888     299.690     -76.933
  H      248.225     297.464     -78.175
  H      248.103     299.207     -78.530
  P      252.060     296.169     -77.795
  C      253.965     295.709     -76.064
  O      252.750     295.272     -76.660
  O      252.746     296.281     -79.117
  O      250.664     295.391     -78.035
  H      250.764     294.868     -78.855
  H      254.281     294.994     -75.333
  H      253.810     296.657     -75.592
  H      254.718     295.804     -76.818

 6  7  8  9  10  11  12  13  14  15  16  26  31  32  33  34  35 0
 6-311+G(2d,p)
 ****
 36  37 0
 6-311+G(2d,p)
 ****
 1  2  3  4  5  17  18  19  20  21  22  23  24  25 0
 3-21G
 ****
 27  28  29  30  38  39  40  41  42  43  44  45 0
 3-21G
 ****


