%nproc=1
%NoSave
%Mem=1900MB
#P OB98/GEN NMR

erre ene a

0 1
  C     -400.644      78.048     186.168
  O     -401.381      79.240     185.994
  H     -400.470      77.594     185.194
  H     -401.209      77.348     186.792
  H     -399.677      78.259     186.637
  P     -401.645      80.133     187.303
  C     -403.682      79.032     188.504
  O     -402.271      79.144     188.406
  C     -404.057      78.220     189.751
  O     -403.836      79.046     190.925
  C     -405.525      77.775     189.770
  O     -405.605      76.466     190.359
  C     -406.190      78.795     190.676
  O     -407.400      78.328     191.271
  C     -405.065      79.056     191.687
  N     -405.233      80.331     192.398
  C     -405.703      80.276     193.703
  O     -405.926      79.241     194.331
  N     -405.937      81.497     194.296
  C     -405.769      82.721     193.716
  O     -406.010      83.770     194.288
  C     -405.272      82.710     192.326
  C     -405.033      81.534     191.740
  O     -402.897      81.041     186.876
  O     -400.487      80.942     187.783
  H     -402.597      81.877     186.479
  H     -407.740      79.046     191.853
  H     -406.282      81.480     195.253
  H     -405.133      83.663     191.832
  H     -404.679      81.494     190.712
  H     -405.006      78.232     192.414
  H     -406.420      79.710     190.109
  H     -405.978      77.756     188.765
  H     -403.381      77.361     189.829
  H     -404.069      78.530     187.621
  H     -404.120      80.033     188.560
  P     -406.300      75.308     189.485
  C     -407.986      74.952     191.455
  O     -407.791      75.143     190.061
  O     -405.521      74.011     190.004
  O     -406.198      75.559     188.005
  H     -405.320      74.037     190.959
  H     -409.032      74.862     191.660
  H     -407.589      75.790     191.989
  H     -407.483      74.060     191.767

 6  7  8  9  10  11  12  13  14  15  16  27  31  32  33  34  35 0
 6-311+G(2d,p)
 ****
 36  37 0
 6-311+G(2d,p)
 ****
 1  2  3  4  5  17  18  19  20  21  22  23  24  25 0
 3-21G
 ****
 26  28  29  30  38  39  40  41  42  43  44  45 0
 3-21G
 ****


