%nproc=1
%NoSave
%Mem=1900MB
#P OB98/GEN NMR

erre ene a

0 1
  C      -58.603    -895.830     379.776
  O      -58.310    -897.210     379.996
  P      -59.051    -897.940     381.224
  C      -59.292    -897.360     383.751
  O      -58.601    -897.130     382.541
  C      -58.969    -896.290     384.785
  O      -59.310    -894.990     384.283
  C      -59.698    -896.460     386.123
  O      -59.106    -897.480     386.887
  C      -59.543    -895.050     386.696
  O      -58.285    -894.930     387.419
  C      -59.550    -894.150     385.454
  N      -60.780    -893.390     385.317
  C      -60.863    -892.240     386.121
  O      -59.953    -891.970     386.916
  N      -62.011    -891.480     386.060
  C      -62.970    -891.830     385.267
  N      -64.079    -891.050     385.236
  C      -62.931    -893.030     384.398
  C      -61.805    -893.760     384.486
  O      -58.270    -899.320     381.346
  O      -60.527    -898.100     381.053
  H      -57.600    -895.200     386.792
  H      -58.849    -900.000     381.744
  H      -63.752    -893.280     383.762
  H      -61.679    -894.670     383.900
  H      -58.698    -893.450     385.471
  H      -60.335    -894.830     387.413
  H      -60.753    -896.670     385.943
  H      -57.857    -896.300     384.938
  H      -64.093    -890.230     385.833
  H      -59.024    -898.340     384.146
  H      -64.878    -891.210     384.634
  H      -60.381    -897.360     383.539
  P      -59.904    -898.010     388.174
  C      -60.342    -896.810     390.390
  O      -59.413    -897.040     389.364
  O      -59.149    -899.370     388.500
  O      -61.372    -898.190     388.031
  H      -59.602    -899.840     389.230
  H      -59.849    -896.280     391.203
  H      -60.752    -897.750     390.782
  H      -61.153    -896.180     390.024
  H      -58.045    -895.477     378.934
  H      -58.334    -895.266     380.644
  H      -59.649    -895.714     379.585

 3  4  5  6  7  8  9  10  11  12  13  21  23  27  28  29  30  32 0
 6-311+G(2d,p)
 ****
 34  35 0
 6-311+G(2d,p)
 ****
 1  2  14  15  16  17  18  19  20  22  24  25  26 0
 3-21G
 ****
 31  33  36  37  38  39  40  41  42  43  44  45  46 0
 3-21G
 ****


