%nproc=1
%NoSave
%Mem=1900MB
#P OB98/GEN NMR

erre ene a

0 1
  C      586.130    -211.705    -219.229
  O      586.118    -210.363    -218.786
  H      586.695    -211.760    -220.164
  H      585.112    -212.059    -219.410
  H      586.618    -212.338    -218.482
  P      585.302    -210.057    -217.440
  C      585.289    -211.949    -215.688
  O      586.053    -210.924    -216.314
  C      585.543    -211.962    -214.184
  O      586.950    -212.237    -213.951
  C      585.212    -210.629    -213.504
  O      584.637    -210.882    -212.224
  C      586.572    -209.973    -213.320
  O      586.588    -209.042    -212.245
  C      587.480    -211.186    -213.122
  N      591.570    -208.375    -211.943
  C      590.383    -208.556    -211.320
  N      589.354    -209.338    -211.693
  C      589.655    -210.012    -212.817
  C      590.813    -209.928    -213.566
  C      591.806    -209.052    -213.086
  N      593.003    -208.841    -213.734
  N      590.730    -210.744    -214.682
  C      589.544    -211.318    -214.595
  N      588.853    -210.894    -213.497
  O      583.826    -210.254    -217.519
  O      585.777    -208.565    -217.102
  H      587.521    -208.761    -212.092
  H      586.738    -208.462    -217.223
  H      590.247    -207.990    -210.399
  H      589.140    -212.026    -215.305
  H      587.493    -211.533    -212.081
  H      586.846    -209.432    -214.235
  H      584.542    -210.009    -214.094
  H      584.979    -212.785    -213.731
  H      585.559    -212.928    -216.108
  H      593.666    -208.208    -213.317
  H      593.210    -209.361    -214.582
  H      584.232    -211.761    -215.898
  P      583.060    -210.623    -212.027
  C      580.864    -211.168    -213.273
  O      582.272    -211.394    -213.191
  O      582.661    -209.201    -211.817
  O      582.726    -211.510    -210.743
  H      582.068    -211.045    -210.197
  H      580.458    -211.735    -214.085
  H      580.679    -210.127    -213.438
  H      580.400    -211.472    -212.358

 6  7  8  9  10  11  12  13  14  15  25  28  32  33  34  35 0
 6-311+G(2d,p)
 ****
 36  39  40 0
 6-311+G(2d,p)
 ****
 1  2  3  4  5  16  17  18  19  20  21  22  23  24 0
 3-21G
 ****
 26  27  29  30  31  37  38  41  42  43  44  45  46  47 0
 3-21G
 ****
 48 0
 3-21G
 ****


