%nproc=1
%NoSave
%Mem=1900MB
#P OB98/GEN NMR

erre ene a

0 1
  C        6.846     804.668     288.702
  O        6.339     804.152     287.464
  P        7.297     803.229     286.572
  C        5.344     801.733     285.724
  O        6.430     802.574     285.387
  C        4.321     801.692     284.575
  O        3.600     802.937     284.463
  C        4.950     801.453     283.218
  O        5.206     800.070     282.977
  C        3.832     801.946     282.294
  O        2.826     800.924     282.158
  C        3.268     803.145     283.077
  N        3.035     806.894     279.575
  C        2.350     805.734     279.693
  N        2.496     804.781     280.638
  C        3.425     805.131     281.537
  C        4.204     806.280     281.550
  C        3.971     807.200     280.503
  N        4.673     808.383     280.381
  N        5.063     806.291     282.634
  C        4.808     805.155     283.265
  N        3.839     804.425     282.645
  O        7.596     801.981     287.535
  O        8.562     803.909     286.146
  H        3.247     800.183     281.668
  H        8.512     801.659     287.382
  H        1.610     805.534     278.936
  H        5.302     804.847     284.183
  H        2.182     803.227     282.987
  H        4.184     802.172     281.285
  H        5.847     802.081     283.077
  H        3.592     800.884     284.799
  H        4.854     802.078     286.642
  H        4.432     809.010     279.627
  H        5.355     808.613     281.090
  H        5.727     800.724     285.942
  P        6.733     799.599     283.002
  C        6.216     797.877     284.878
  O        6.724     798.108     283.576
  O        7.371     800.469     284.188
  O        7.454     799.805     281.705
  H        8.318     800.640     284.004
  H        5.994     796.807     284.992
  H        5.308     798.460     285.066
  H        6.995     798.165     285.616
  H        6.092     805.261     289.177
  H        7.707     805.273     288.510
  H        7.117     803.855     289.343

 3  4  5  6  7  8  9  10  11  12  22  25  29  30  31  32 0
 6-311+G(2d,p)
 ****
 33  36  37 0
 6-311+G(2d,p)
 ****
 1  2  13  14  15  16  17  18  19  20  21  23  24  26 0
 3-21G
 ****
 27  28  34  35  38  39  40  41  42  43  44  45  46  47  48 0
 3-21G
 ****


