%nproc=1
%NoSave
%Mem=1900MB
#P OB98/GEN NMR

erre ene a

0 1
  C      149.696     -26.163    -128.508
  O      148.884     -27.186    -129.088
  P      147.306     -27.071    -128.811
  C      147.380     -28.397    -126.584
  O      147.085     -27.164    -127.222
  C      146.777     -28.446    -125.176
  O      147.413     -27.460    -124.309
  C      145.264     -28.165    -125.144
  O      144.716     -28.980    -124.100
  C      145.224     -26.696    -124.758
  O      143.950     -26.271    -124.300
  C      146.352     -26.664    -123.735
  N      146.733     -23.149    -120.058
  C      146.201     -24.392    -120.068
  N      146.136     -25.268    -121.094
  C      146.703     -24.745    -122.194
  C      147.282     -23.495    -122.338
  C      147.286     -22.672    -121.198
  N      147.803     -21.398    -121.183
  N      147.735     -23.311    -123.637
  C      147.364     -24.410    -124.269
  N      146.815     -25.331    -123.425
  O      146.728     -28.458    -129.362
  O      146.670     -25.889    -129.464
  H      143.989     -25.330    -124.033
  H      146.349     -28.339    -130.252
  H      145.770     -24.724    -119.128
  H      147.469     -24.585    -125.333
  H      146.062     -27.134    -122.785
  H      145.479     -26.083    -125.632
  H      144.754     -28.393    -126.084
  H      146.979     -29.436    -124.749
  H      148.460     -28.535    -126.514
  H      147.758     -20.882    -120.317
  H      148.214     -21.001    -122.015
  H      147.004     -29.218    -127.204
  P      144.431     -30.532    -124.400
  C      142.469     -29.852    -125.909
  O      143.704     -30.536    -125.832
  O      143.189     -30.795    -123.421
  O      145.577     -31.465    -124.201
  H      142.501     -30.116    -123.533
  H      142.126     -29.864    -126.945
  H      142.588     -28.815    -125.585
  H      141.724     -30.357    -125.284
  H      150.722     -26.339    -128.756
  H      149.579     -26.175    -127.445
  H      149.395     -25.210    -128.890

 3  4  5  6  7  8  9  10  11  12  22  25  29  30  31  32 0
 6-311+G(2d,p)
 ****
 33  36  37 0
 6-311+G(2d,p)
 ****
 1  2  13  14  15  16  17  18  19  20  21  23  24  26 0
 3-21G
 ****
 27  28  34  35  38  39  40  41  42  43  44  45  46  47  48 0
 3-21G
 ****


