%nproc=1
%NoSave
%Mem=1900MB
#P OB98/GEN NMR

erre ene a

0 1
  C     -141.714    -536.306    -324.892
  O     -141.691    -537.472    -324.090
  P     -140.723    -538.674    -324.545
  C     -139.614    -540.694    -323.337
  O     -140.350    -539.480    -323.212
  C     -139.009    -541.082    -321.994
  O     -138.054    -540.093    -321.560
  C     -140.011    -541.192    -320.860
  O     -140.708    -542.433    -320.865
  C     -139.109    -541.101    -319.643
  O     -138.485    -542.377    -319.393
  C     -138.059    -540.076    -320.104
  N     -137.308    -536.765    -316.353
  C     -136.707    -537.988    -316.588
  N     -135.824    -538.408    -315.659
  N     -136.948    -538.724    -317.635
  C     -137.859    -538.182    -318.480
  C     -138.524    -536.972    -318.351
  C     -138.254    -536.174    -317.181
  O     -138.797    -535.107    -316.888
  N     -139.370    -536.755    -319.414
  C     -139.217    -537.824    -320.179
  N     -138.345    -538.733    -319.631
  O     -139.360    -537.924    -324.914
  O     -141.238    -539.493    -325.678
  H     -137.925    -542.256    -318.600
  H     -138.793    -538.509    -325.455
  H     -137.094    -536.236    -315.526
  H     -139.722    -537.982    -321.119
  H     -137.050    -540.341    -319.769
  H     -139.641    -540.824    -318.726
  H     -135.643    -537.920    -314.788
  H     -140.712    -540.343    -320.856
  H     -135.416    -539.329    -315.770
  H     -138.470    -542.036    -322.123
  H     -138.820    -540.557    -324.072
  H     -140.278    -541.480    -323.691
  P     -141.353    -542.914    -319.481
  C     -143.615    -544.022    -318.837
  O     -142.777    -543.546    -319.866
  O     -141.730    -541.533    -318.763
  O     -140.461    -543.763    -318.632
  H     -141.748    -541.646    -317.797
  H     -144.622    -544.170    -319.241
  H     -143.668    -543.306    -318.011
  H     -143.243    -544.980    -318.464
  H     -142.397    -535.597    -324.472
  H     -142.029    -536.560    -325.882
  H     -140.734    -535.879    -324.928

 3  4  5  6  7  8  9  10  11  12  23  26  30  31 0
 6-311+G(2d,p)
 ****
 33  35  36  37  38 0
 6-311+G(2d,p)
 ****
 1  2  13  14  15  16  17  18  19  20  21  22  24  25 0
 3-21G
 ****
 27  28  29  32  34  39  40  41  42  43  44  45  46  47  48  49 0
 3-21G
 ****


