%nproc=1
%NoSave
%Mem=1900MB
#P OB98/GEN NMR

erre ene a

0 1
  C      163.042     577.952    -313.412
  O      162.791     578.429    -314.721
  H      163.608     577.015    -313.452
  H      163.642     578.700    -312.876
  H      162.102     577.808    -312.874
  P      161.916     577.479    -315.677
  C      163.619     576.465    -317.356
  O      162.896     576.299    -316.142
  C      164.995     577.076    -317.055
  O      165.607     576.396    -315.938
  C      165.988     576.964    -318.199
  O      165.805     577.975    -319.185
  C      167.301     577.166    -317.455
  O      167.479     578.563    -317.158
  C      167.041     576.382    -316.158
  N      170.470     573.004    -314.377
  C      170.293     574.319    -314.141
  N      169.362     575.150    -314.649
  C      168.551     574.488    -315.505
  C      168.623     573.159    -315.856
  C      169.627     572.383    -315.244
  N      169.829     571.052    -315.506
  N      167.642     572.844    -316.793
  C      166.991     573.969    -316.969
  N      167.503     574.995    -316.228
  O      161.738     578.356    -317.010
  O      160.606     577.021    -315.115
  H      166.714     578.836    -316.617
  H      160.974     578.030    -317.525
  H      170.985     574.771    -313.435
  H      166.135     574.098    -317.626
  H      167.514     576.844    -315.283
  H      168.173     576.849    -318.018
  H      165.989     575.964    -318.652
  H      164.837     578.123    -316.767
  H      163.062     577.137    -318.013
  H      170.686     570.637    -315.161
  H      169.311     570.623    -316.256
  H      163.742     575.484    -317.842
  P      166.520     577.765    -320.602
  C      168.608     579.297    -320.894
  O      168.073     578.086    -320.360
  O      166.005     579.013    -321.457
  O      166.228     576.454    -321.269
  H      166.018     578.818    -322.415
  H      169.648     579.366    -320.650
  H      168.087     580.132    -320.475
  H      168.490     579.301    -321.957

 6  7  8  9  10  11  12  13  14  15  25  28  32  33  34  35 0
 6-311+G(2d,p)
 ****
 36  39  40 0
 6-311+G(2d,p)
 ****
 1  2  3  4  5  16  17  18  19  20  21  22  23  24 0
 3-21G
 ****
 26  27  29  30  31  37  38  41  42  43  44  45  46  47 0
 3-21G
 ****
 48 0
 3-21G
 ****


