%nproc=1
%NoSave
%Mem=1900MB
#P OB98/GEN NMR

erre ene a

0 1
  C       87.391     -84.804     117.137
  O       86.746     -84.068     116.118
  H       88.472     -84.686     117.027
  H       87.143     -85.863     117.033
  H       87.095     -84.447     118.127
  P       85.182     -83.768     116.307
  C       83.875     -81.531     116.450
  O       84.950     -82.244     115.856
  C       84.203     -80.039     116.527
  O       85.079     -79.816     117.674
  C       84.914     -79.487     115.281
  O       84.451     -78.152     115.038
  C       86.363     -79.411     115.728
  O       87.114     -78.468     114.972
  C       86.187     -79.033     117.195
  N       91.146     -78.268     117.160
  C       90.152     -77.737     116.366
  N       90.536     -76.919     115.363
  N       88.881     -77.990     116.536
  C       88.631     -78.808     117.586
  C       89.523     -79.402     118.444
  C       90.931     -79.129     118.236
  O       91.859     -79.586     118.892
  N       88.876     -80.214     119.342
  C       87.599     -80.125     119.012
  N       87.401     -79.285     117.952
  O       85.026     -83.718     117.900
  O       84.261     -84.764     115.688
  H       86.631     -77.616     114.979
  H       84.745     -84.591     118.231
  H       92.112     -78.055     116.977
  H       86.791     -80.658     119.490
  H       85.943     -77.972     117.329
  H       86.838     -80.394     115.627
  H       91.492     -76.653     115.189
  H       84.775     -80.095     114.383
  H       89.814     -76.490     114.798
  H       83.276     -79.486     116.721
  H       83.707     -81.911     117.463
  H       82.967     -81.691     115.860
  P       83.037     -77.967     114.307
  C       81.426     -76.005     113.734
  O       82.677     -76.405     114.275
  O       81.999     -78.561     115.372
  O       82.937     -78.672     112.995
  H       81.260     -78.995     114.906
  H       81.339     -74.940     113.785
  H       80.634     -76.455     114.296
  H       81.362     -76.319     112.713

 6  7  8  9  10  11  12  13  14  15  26  29  33  34 0
 6-311+G(2d,p)
 ****
 36  38  39  40  41 0
 6-311+G(2d,p)
 ****
 1  2  3  4  5  16  17  18  19  20  21  22  23  24  25 0
 3-21G
 ****
 27  28  30  31  32  35  37  42  43  44  45  46  47 0
 3-21G
 ****
 48  49 0
 3-21G
 ****


