%nproc=1
%NoSave
%Mem=1900MB
#P OB98/GEN NMR

erre ene a

0 1
  C     -204.376     188.598      29.594
  O     -204.799     189.134      28.350
  P     -203.911     190.215      27.551
  C     -203.356     192.717      27.923
  O     -203.935     191.536      28.459
  C     -203.560     193.894      28.889
  O     -202.814     193.630      30.104
  C     -203.078     195.249      28.335
  O     -203.976     196.247      28.843
  C     -201.700     195.401      28.952
  O     -201.272     196.745      29.000
  C     -201.929     194.753      30.325
  N     -200.684     194.316      30.950
  C     -200.396     194.809      32.222
  O     -201.150     195.605      32.790
  N     -199.241     194.388      32.849
  C     -198.406     193.622      32.219
  N     -197.308     193.188      32.900
  C     -198.623     193.171      30.824
  C     -199.777     193.530      30.276
  O     -204.312     190.429      26.132
  O     -202.408     189.712      27.737
  H     -201.018     197.025      28.099
  H     -202.141     189.033      27.068
  H     -197.887     192.548      30.335
  H     -200.033     193.224      29.266
  H     -202.453     195.446      30.989
  H     -200.971     194.829      28.368
  H     -203.078     195.284      27.243
  H     -204.618     193.940      29.157
  H     -197.284     193.380      33.897
  H     -203.853     192.943      26.978
  H     -196.806     192.362      32.605
  H     -202.294     192.549      27.728
  P     -203.683     197.788      28.482
  C     -202.232     199.704      29.467
  O     -202.561     198.332      29.490
  O     -205.009     198.511      29.030
  O     -203.502     198.107      27.032
  H     -205.146     199.341      28.540
  H     -201.457     199.894      30.222
  H     -203.105     200.316      29.708
  H     -201.836     199.988      28.480
  H     -205.107     187.903      29.950
  H     -204.262     189.391      30.304
  H     -203.440     188.096      29.466

 3  4  5  6  7  8  9  10  11  12  13  23  27  28  29  30  32 0
 6-311+G(2d,p)
 ****
 34  35 0
 6-311+G(2d,p)
 ****
 1  2  14  15  16  17  18  19  20  21  22  24  25  26 0
 3-21G
 ****
 31  33  36  37  38  39  40  41  42  43  44  45  46 0
 3-21G
 ****


