%nproc=1
%NoSave
%Mem=1900MB
#P OB98/GEN NMR

erre ene a

0 1
  C     -454.019     351.553    -172.050
  O     -455.399     351.713    -172.329
  H     -453.758     350.496    -172.153
  H     -453.806     351.870    -171.025
  H     -453.422     352.138    -172.754
  P     -455.977     353.204    -172.256
  C     -456.959     354.643    -170.335
  O     -456.411     353.385    -170.720
  C     -457.686     354.515    -168.999
  O     -458.873     353.713    -169.130
  C     -456.869     353.850    -167.894
  O     -455.968     354.776    -167.306
  C     -457.970     353.438    -166.930
  O     -458.375     354.573    -166.144
  C     -459.107     353.020    -167.878
  N     -460.730     348.490    -166.089
  C     -460.634     349.704    -165.500
  N     -460.154     350.851    -166.022
  C     -459.744     350.674    -167.293
  C     -459.780     349.488    -168.017
  C     -460.309     348.361    -167.370
  N     -460.422     347.124    -167.973
  N     -459.272     349.673    -169.288
  C     -458.984     350.964    -169.339
  N     -459.218     351.594    -168.149
  O     -457.006     353.553    -173.279
  O     -454.621     354.061    -172.331
  H     -459.232     354.358    -165.728
  H     -453.916     353.629    -171.823
  H     -460.991     349.757    -164.477
  H     -458.620     351.483    -170.227
  H     -460.092     353.346    -167.502
  H     -457.640     352.667    -166.227
  H     -456.358     352.952    -168.266
  H     -458.002     355.522    -168.688
  H     -457.652     355.001    -171.100
  H     -460.648     346.342    -167.387
  H     -459.999     347.009    -168.875
  H     -456.131     355.350    -170.249
  P     -455.071     354.353    -166.039
  C     -455.373     354.267    -163.487
  O     -455.992     354.571    -164.738
  O     -453.733     355.005    -165.975
  O     -454.958     352.767    -166.142
  H     -454.061     352.467    -165.876
  H     -456.068     354.445    -162.693
  H     -454.512     354.889    -163.354
  H     -455.075     353.239    -163.477

 6  7  8  9  10  11  12  13  14  15  25  28  32  33  34  35 0
 6-311+G(2d,p)
 ****
 36  39  40 0
 6-311+G(2d,p)
 ****
 1  2  3  4  5  16  17  18  19  20  21  22  23  24 0
 3-21G
 ****
 26  27  29  30  31  37  38  41  42  43  44  45  46  47 0
 3-21G
 ****
 48 0
 3-21G
 ****


