%nproc=1
%NoSave
%Mem=1900MB
#P OB98/GEN NMR

erre ene a

0 1
  C     -314.968     -65.818    -217.297
  O     -314.641     -66.354    -216.036
  P     -315.525     -66.004    -214.746
  C     -315.381     -68.162    -213.350
  O     -316.168     -67.389    -214.252
  C     -316.176     -68.454    -212.079
  O     -317.373     -69.217    -212.376
  C     -315.430     -69.306    -211.065
  O     -314.290     -68.743    -210.456
  C     -316.564     -69.737    -210.149
  O     -316.889     -68.718    -209.207
  C     -317.723     -69.928    -211.161
  N     -317.997     -71.340    -211.417
  C     -319.085     -71.880    -210.743
  O     -319.794     -71.240    -209.969
  N     -319.321     -73.210    -210.960
  C     -318.564     -74.043    -211.733
  O     -318.808     -75.239    -211.846
  C     -317.419     -73.418    -212.408
  C     -317.188     -72.115    -212.226
  O     -316.505     -64.894    -214.930
  O     -314.427     -65.719    -213.614
  H     -317.718     -68.980    -208.763
  H     -313.834     -66.467    -213.425
  H     -320.096     -73.627    -210.470
  H     -316.806     -74.049    -213.039
  H     -316.348     -71.633    -212.713
  H     -318.640     -69.465    -210.780
  H     -316.307     -70.635    -209.577
  H     -315.071     -70.211    -211.576
  H     -316.499     -67.502    -211.651
  H     -314.485     -67.595    -213.088
  H     -315.063     -69.086    -213.844
  P     -313.130     -69.616    -209.778
  C     -311.307     -69.811    -211.608
  O     -312.375     -70.434    -210.928
  O     -313.489     -70.354    -208.531
  O     -312.048     -68.484    -209.417
  H     -311.564     -68.752    -208.614
  H     -310.942     -70.491    -212.383
  H     -310.486     -69.599    -210.915
  H     -311.642     -68.886    -212.085
  H     -314.265     -66.166    -218.025
  H     -314.934     -64.750    -217.250
  H     -315.953     -66.132    -217.573

 3  4  5  6  7  8  9  10  11  12  13  23  28  29  30  31  32 0
 6-311+G(2d,p)
 ****
 33  34 0
 6-311+G(2d,p)
 ****
 1  2  14  15  16  17  18  19  20  21  22  24  25  26  27 0
 3-21G
 ****
 35  36  37  38  39  40  41  42  43  44  45 0
 3-21G
 ****


