%nproc=1
%NoSave
%Mem=1900MB
#P OB98/GEN NMR

erre ene a

0 1
  C     -232.155     207.895     251.404
  O     -231.330     206.791     251.084
  H     -232.738     208.165     250.518
  H     -231.543     208.754     251.696
  H     -232.842     207.629     252.213
  P     -230.404     206.225     252.268
  C     -228.844     208.280     252.064
  O     -229.719     207.534     252.896
  C     -228.007     209.247     252.902
  O     -227.059     209.950     252.072
  C     -228.818     210.330     253.611
  O     -229.400     209.826     254.801
  C     -227.730     211.351     253.904
  O     -226.981     210.945     255.065
  C     -226.841     211.262     252.647
  N     -225.102     215.526     250.373
  C     -224.679     214.860     251.473
  N     -225.219     213.760     252.043
  C     -226.302     213.350     251.364
  C     -226.842     213.926     250.228
  C     -226.191     215.070     249.720
  N     -226.615     215.739     248.597
  N     -227.962     213.233     249.811
  C     -228.056     212.222     250.645
  N     -227.096     212.265     251.627
  O     -229.487     205.109     251.894
  O     -231.508     205.855     253.366
  H     -226.859     209.980     255.015
  H     -232.219     206.523     253.377
  H     -223.795     215.260     251.957
  H     -228.789     211.423     250.582
  H     -225.775     211.344     252.897
  H     -228.137     212.344     254.123
  H     -229.558     210.775     252.942
  H     -227.433     208.653     253.627
  H     -229.413     208.838     251.313
  H     -226.200     216.633     248.402
  H     -227.500     215.468     248.184
  H     -228.192     207.568     251.549
  P     -230.745     210.471     255.395
  C     -229.391     211.941     257.017
  O     -230.346     211.919     255.957
  O     -231.483     209.611     256.360
  O     -231.623     210.814     254.101
  H     -232.565     210.636     254.279
  H     -229.204     212.954     257.308
  H     -228.479     211.491     256.685
  H     -229.774     211.395     257.853

 6  7  8  9  10  11  12  13  14  15  25  28  32  33  34  35 0
 6-311+G(2d,p)
 ****
 36  39  40 0
 6-311+G(2d,p)
 ****
 1  2  3  4  5  16  17  18  19  20  21  22  23  24 0
 3-21G
 ****
 26  27  29  30  31  37  38  41  42  43  44  45  46  47 0
 3-21G
 ****
 48 0
 3-21G
 ****


