%nproc=1
%NoSave
%Mem=1900MB
#P OB98/GEN NMR

erre ene a

0 1
  C      -93.922      39.658      72.345
  O      -94.406      40.395      71.223
  P      -95.975      40.365      70.888
  C      -97.389      42.499      71.115
  O      -96.416      41.810      70.343
  C      -97.725      43.880      70.536
  O      -96.731      44.864      70.932
  C      -97.816      43.916      69.004
  O      -98.852      44.847      68.668
  C      -96.457      44.462      68.612
  O      -96.438      44.977      67.290
  C      -96.239      45.486      69.729
  N      -94.845      45.882      69.860
  C      -94.337      46.758      68.900
  O      -95.029      47.081      67.934
  N      -93.050      47.218      69.046
  C      -92.298      46.724      69.979
  N      -91.036      47.218      70.103
  C      -92.746      45.663      70.900
  C      -94.025      45.313      70.801
  O      -96.848      39.805      71.962
  O      -96.039      39.458      69.567
  H      -95.570      45.403      67.126
  H      -96.865      38.936      69.582
  H      -92.058      45.225      71.606
  H      -94.451      44.549      71.435
  H      -96.843      46.386      69.556
  H      -95.708      43.662      68.674
  H      -98.049      42.945      68.558
  H      -98.685      44.200      70.965
  H      -90.733      47.929      69.448
  H      -97.015      42.620      72.136
  H      -90.405      46.923      70.837
  H      -98.288      41.876      71.193
  P      -99.878      44.475      67.491
  C     -100.853      42.104      67.916
  O     -100.992      43.496      68.098
  O      -98.999      43.465      66.601
  O     -100.356      45.612      66.649
  H      -99.338      43.474      65.686
  H     -101.521      41.592      68.616
  H      -99.829      41.775      68.113
  H     -101.138      41.832      66.896
  H      -92.863      39.785      72.425
  H      -94.148      38.620      72.214
  H      -94.393      40.016      73.237

 3  4  5  6  7  8  9  10  11  12  13  23  27  28  29  30  32 0
 6-311+G(2d,p)
 ****
 34  35 0
 6-311+G(2d,p)
 ****
 1  2  14  15  16  17  18  19  20  21  22  24  25  26 0
 3-21G
 ****
 31  33  36  37  38  39  40  41  42  43  44  45  46 0
 3-21G
 ****


