%nproc=1
%NoSave
%Mem=1900MB
#P OB98/GEN NMR

erre ene a

0 1
  C     -899.420    -893.825     265.997
  O     -898.040    -893.803     265.735
  H     -899.670    -894.758     266.509
  H     -900.000    -893.776     265.064
  H     -899.700    -892.983     266.639
  P     -897.420    -892.529     264.983
  C     -895.640    -893.873     263.692
  O     -895.890    -892.885     264.691
  C     -894.170    -894.284     263.736
  O     -893.310    -893.167     263.430
  C     -893.710    -894.812     265.095
  O     -894.090    -896.181     265.263
  C     -892.210    -894.633     264.969
  O     -891.650    -895.672     264.140
  C     -892.120    -893.271     264.254
  N     -889.280    -890.627     267.520
  C     -889.000    -891.815     266.855
  N     -887.810    -892.393     267.126
  N     -889.820    -892.377     266.011
  C     -891.000    -891.722     265.891
  C     -891.390    -890.554     266.503
  C     -890.460    -889.912     267.398
  O     -890.650    -888.857     267.989
  N     -892.690    -890.229     266.176
  C     -893.060    -891.172     265.331
  N     -892.070    -892.112     265.139
  O     -897.620    -891.202     265.653
  O     -898.100    -892.568     263.535
  H     -891.950    -896.520     264.527
  H     -898.920    -892.039     263.503
  H     -888.610    -890.246     268.174
  H     -894.010    -891.223     264.839
  H     -891.250    -893.206     263.591
  H     -891.690    -894.667     265.937
  H     -887.290    -892.167     267.969
  H     -894.070    -894.184     265.921
  H     -887.610    -893.280     266.692
  H     -894.010    -895.040     262.954
  H     -895.880    -893.428     262.721
  H     -896.270    -894.741     263.849
  P     -894.940    -896.655     266.536
  C     -893.840    -898.957     266.243
  O     -895.050    -898.227     266.392
  O     -896.250    -895.947     266.716
  O     -893.930    -896.486     267.769
  H     -893.970    -895.585     268.174
  H     -894.061    -900.000     266.157
  H     -893.217    -898.793     267.098
  H     -893.330    -898.626     265.362

 6  7  8  9  10  11  12  13  14  15  26  29  33  34 0
 6-311+G(2d,p)
 ****
 36  38  39  40  41 0
 6-311+G(2d,p)
 ****
 1  2  3  4  5  16  17  18  19  20  21  22  23  24  25 0
 3-21G
 ****
 27  28  30  31  32  35  37  42  43  44  45  46  47 0
 3-21G
 ****
 48  49 0
 3-21G
 ****


