%nproc=1
%NoSave
%Mem=1900MB
#P OB98/GEN NMR

erre ene a

0 1
  C     1130.536     691.675     644.966
  O     1131.531     692.203     645.874
  P     1131.037     692.928     647.221
  C     1131.161     690.817     648.698
  O     1130.315     691.843     648.191
  C     1130.321     689.740     649.430
  O     1129.862     690.238     650.749
  C     1129.035     689.345     648.632
  O     1128.713     687.981     648.875
  C     1127.958     690.218     649.338
  O     1126.661     689.658     649.084
  C     1128.461     690.140     650.788
  N     1124.528     691.671     653.738
  C     1124.799     690.478     653.167
  N     1125.880     690.151     652.422
  C     1126.733     691.178     652.311
  C     1126.605     692.451     652.884
  C     1125.454     692.669     653.628
  N     1125.175     693.874     654.237
  N     1127.703     693.249     652.542
  C     1128.443     692.492     651.752
  N     1127.885     691.199     651.593
  O     1130.248     694.179     647.035
  O     1132.405     693.226     648.032
  H     1126.631     688.797     649.469
  H     1132.387     694.132     648.354
  H     1124.070     689.694     653.301
  H     1129.331     692.847     651.292
  H     1128.196     689.179     651.275
  H     1128.030     691.219     648.968
  H     1129.095     689.540     647.571
  H     1130.933     688.874     649.619
  H     1131.881     691.239     649.417
  H     1124.284     694.015     654.662
  H     1125.730     694.706     654.040
  H     1131.745     690.374     647.883
  P     1128.400     687.108     647.556
  C     1130.727     685.860     647.844
  O     1129.782     686.602     646.986
  O     1127.496     687.820     646.577
  O     1127.723     685.797     648.204
  H     1128.233     685.367     648.895
  H     1131.533     685.546     647.217
  H     1130.166     685.042     648.262
  H     1131.081     686.573     648.612
  H     1131.023     691.227     644.125
  H     1129.902     692.469     644.631
  H     1129.947     690.938     645.471

 3  4  5  6  7  8  9  10  11  12  22  25  29  30  31  32 0
 6-311+G(2d,p)
 ****
 33  36  37 0
 6-311+G(2d,p)
 ****
 1  2  13  14  15  16  17  18  19  20  21  23  24  26 0
 3-21G
 ****
 27  28  34  35  38  39  40  41  42  43  44  45  46  47  48 0
 3-21G
 ****


