%nproc=1
%NoSave
%Mem=1900MB
#P OB98/GEN NMR

erre ene a

0 1
  C     -850.998    -922.145     456.857
  O     -849.979    -922.820     456.129
  P     -848.465    -922.269     456.089
  C     -847.253    -922.647     453.856
  O     -847.706    -923.216     455.075
  C     -846.328    -923.624     453.129
  O     -845.090    -923.741     453.872
  C     -846.881    -925.029     452.959
  O     -847.857    -925.072     451.928
  C     -845.597    -925.812     452.707
  O     -845.172    -925.677     451.345
  C     -844.575    -925.099     453.627
  N     -844.359    -925.780     454.886
  C     -843.040    -925.949     455.287
  O     -842.081    -925.487     454.599
  N     -842.750    -926.561     456.483
  C     -843.696    -927.039     457.210
  N     -843.401    -927.600     458.416
  C     -845.139    -926.959     456.785
  C     -845.381    -926.330     455.649
  O     -847.826    -922.131     457.429
  O     -848.580    -920.908     455.279
  H     -845.246    -924.744     451.107
  H     -848.778    -920.119     455.861
  H     -845.908    -927.381     457.448
  H     -846.396    -926.188     455.297
  H     -843.610    -924.977     453.121
  H     -845.698    -926.883     452.924
  H     -847.332    -925.359     453.922
  H     -846.059    -923.178     452.131
  H     -842.442    -927.460     458.717
  H     -846.687    -921.714     454.103
  H     -844.094    -927.687     459.139
  H     -848.101    -922.371     453.230
  P     -849.378    -925.200     452.378
  C     -849.432    -927.212     450.732
  O     -850.108    -926.061     451.225
  O     -849.962    -923.699     452.154
  O     -849.597    -925.674     453.787
  H     -850.004    -923.232     453.019
  H     -850.130    -927.822     450.147
  H     -849.047    -927.822     451.562
  H     -848.586    -926.891     450.079
  H     -851.922    -922.675     456.752
  H     -851.111    -921.152     456.475
  H     -850.728    -922.101     457.891

 3  4  5  6  7  8  9  10  11  12  13  23  27  28  29  30  32 0
 6-311+G(2d,p)
 ****
 34  35 0
 6-311+G(2d,p)
 ****
 1  2  14  15  16  17  18  19  20  21  22  24  25  26 0
 3-21G
 ****
 31  33  36  37  38  39  40  41  42  43  44  45  46 0
 3-21G
 ****


