%nproc=1
%NoSave
%Mem=1900MB
#P OB98/GEN NMR

erre ene a

0 1
  C       -8.122    -237.770    -452.813
  O       -8.888    -238.854    -453.301
  H       -7.433    -237.447    -453.599
  H       -7.538    -238.075    -451.941
  H       -8.771    -236.931    -452.551
  P       -9.975    -239.512    -452.327
  C      -10.481    -240.889    -454.452
  O      -10.427    -240.881    -453.032
  C      -11.607    -241.800    -454.926
  O      -12.887    -241.253    -454.554
  C      -11.644    -242.002    -456.440
  O      -10.697    -242.982    -456.832
  C      -13.084    -242.454    -456.621
  O      -13.216    -243.830    -456.218
  C      -13.823    -241.538    -455.632
  N      -17.621    -239.143    -457.983
  C      -17.500    -240.471    -457.617
  N      -18.521    -241.281    -457.966
  N      -16.464    -240.959    -456.984
  C      -15.494    -240.043    -456.764
  C      -15.491    -238.708    -457.093
  C      -16.666    -238.165    -457.744
  O      -16.821    -236.994    -458.070
  N      -14.300    -238.110    -456.769
  C      -13.599    -239.077    -456.207
  N      -14.273    -240.274    -456.194
  O      -11.122    -238.636    -451.922
  O       -9.122    -240.008    -451.069
  H      -14.155    -244.063    -456.328
  H       -9.096    -239.328    -450.372
  H      -18.436    -238.833    -458.485
  H      -12.603    -238.963    -455.795
  H      -14.698    -242.023    -455.188
  H      -13.431    -242.382    -457.652
  H      -19.185    -241.025    -458.686
  H      -11.506    -241.060    -456.980
  H      -18.429    -242.266    -457.753
  H      -11.504    -242.760    -454.405
  H       -9.515    -241.252    -454.819
  H      -10.642    -239.876    -454.832
  P       -9.534    -242.634    -457.882
  C       -8.275    -244.661    -456.888
  O       -8.719    -244.002    -458.067
  O       -8.694    -241.455    -457.522
  O      -10.285    -242.488    -459.280
  H      -10.615    -241.572    -459.461
  H       -7.749    -245.554    -457.155
  H       -9.119    -244.912    -456.281
  H       -7.623    -244.013    -456.341

 6  7  8  9  10  11  12  13  14  15  26  29  33  34 0
 6-311+G(2d,p)
 ****
 36  38  39  40  41 0
 6-311+G(2d,p)
 ****
 1  2  3  4  5  16  17  18  19  20  21  22  23  24  25 0
 3-21G
 ****
 27  28  30  31  32  35  37  42  43  44  45  46  47 0
 3-21G
 ****
 48  49 0
 3-21G
 ****


