%nproc=1
%NoSave
%Mem=1900MB
#P OB98/GEN NMR

erre ene a

0 1
  C      171.044     124.923     -90.591
  O      170.205     123.828     -90.911
  P      170.208     122.512     -89.995
  C      171.663     120.410     -89.708
  O      171.584     121.726     -90.245
  C      172.921     119.699     -90.209
  O      172.927     119.631     -91.656
  C      174.217     120.397     -89.840
  O      174.533     120.252     -88.465
  C      175.198     119.729     -90.801
  O      175.608     118.448     -90.298
  C      174.321     119.556     -92.059
  N      174.626     120.540     -93.094
  C      175.499     120.120     -94.103
  O      176.025     119.004     -94.050
  N      175.758     120.975     -95.145
  C      175.289     122.186     -95.118
  N      175.527     122.971     -96.207
  C      174.499     122.718     -93.988
  C      174.187     121.841     -93.032
  O      168.980     121.670     -90.090
  O      170.394     123.078     -88.505
  H      169.711     122.680     -87.928
  H      176.285     118.114     -90.921
  H      174.191     123.756     -93.978
  H      173.590     122.140     -92.173
  H      174.453     118.549     -92.481
  H      176.102     120.328     -90.956
  H      174.143     121.469     -90.084
  H      172.908     118.675     -89.815
  H      176.060     122.566     -96.969
  H      170.772     119.849     -90.021
  H      174.956     123.784     -96.429
  H      171.665     120.466     -88.612
  P      174.981     121.574     -87.681
  C      177.023     123.158     -87.848
  O      176.515     121.852     -88.046
  O      175.036     121.088     -86.147
  O      174.062     122.741     -87.847
  H      174.739     121.810     -85.565
  H      178.115     123.104     -87.807
  H      176.654     123.596     -86.915
  H      176.734     123.795     -88.692
  H      170.904     125.702     -91.311
  H      172.066     124.605     -90.604
  H      170.796     125.289     -89.617

 3  4  5  6  7  8  9  10  11  12  13  24  27  28  29  30  32 0
 6-311+G(2d,p)
 ****
 34  35 0
 6-311+G(2d,p)
 ****
 1  2  14  15  16  17  18  19  20  21  22  23  25  26 0
 3-21G
 ****
 31  33  36  37  38  39  40  41  42  43  44  45  46 0
 3-21G
 ****


