%nproc=1
%NoSave
%Mem=1900MB
#P OB98/GEN NMR

erre ene a

0 1
  C     -396.223     175.327    -171.266
  O     -395.426     176.079    -170.374
  H     -395.622     175.086    -172.148
  H     -397.085     175.917    -171.584
  H     -396.554     174.395    -170.802
  P     -396.015     176.448    -168.930
  C     -396.746     178.799    -169.705
  O     -397.157     177.556    -169.152
  C     -397.904     179.470    -170.451
  O     -398.952     179.783    -169.495
  C     -397.513     180.769    -171.159
  O     -398.220     180.864    -172.392
  C     -397.992     181.847    -170.205
  O     -398.269     183.077    -170.874
  C     -399.229     181.195    -169.589
  N     -401.952     184.654    -167.115
  C     -401.958     184.305    -168.451
  N     -402.798     184.990    -169.255
  N     -401.200     183.368    -168.958
  C     -400.424     182.751    -168.034
  C     -400.328     183.004    -166.686
  C     -401.156     184.059    -166.144
  O     -401.183     184.424    -164.974
  N     -399.412     182.177    -166.089
  C     -398.953     181.428    -167.072
  N     -399.528     181.743    -168.277
  O     -394.988     176.808    -167.904
  O     -396.845     175.152    -168.500
  H     -398.922     182.878    -171.579
  H     -396.369     174.641    -167.822
  H     -402.548     185.393    -166.780
  H     -398.209     180.648    -166.971
  H     -400.125     181.333    -170.203
  H     -397.225     182.037    -169.443
  H     -403.430     185.711    -168.928
  H     -396.438     180.831    -171.343
  H     -402.846     184.734    -170.232
  H     -398.326     178.747    -171.159
  H     -395.921     178.610    -170.399
  H     -396.387     179.451    -168.901
  P     -397.439     180.571    -173.763
  C     -396.638     182.987    -174.118
  O     -396.247     181.637    -173.916
  O     -398.302     180.413    -174.971
  O     -396.652     179.211    -173.439
  H     -396.609     178.669    -174.252
  H     -395.766     183.601    -174.205
  H     -397.225     183.317    -173.286
  H     -397.217     183.060    -175.015

 6  7  8  9  10  11  12  13  14  15  26  29  33  34 0
 6-311+G(2d,p)
 ****
 36  38  39  40  41 0
 6-311+G(2d,p)
 ****
 1  2  3  4  5  16  17  18  19  20  21  22  23  24  25 0
 3-21G
 ****
 27  28  30  31  32  35  37  42  43  44  45  46  47 0
 3-21G
 ****
 48  49 0
 3-21G
 ****


