%nproc=1
%NoSave
%Mem=1900MB
#P OB98/GEN NMR

erre ene a

0 1
  C       98.036    -303.003     164.553
  O       99.036    -303.551     163.695
  P       98.554    -304.608     162.585
  C      100.222    -303.397     161.000
  O       99.737    -304.639     161.491
  C      101.673    -303.528     160.540
  O      102.561    -303.385     161.677
  C      102.019    -304.876     159.923
  O      101.615    -304.952     158.553
  C      103.541    -304.878     160.048
  O      104.122    -304.113     158.966
  C      103.759    -304.154     161.388
  N      107.202    -307.125     163.642
  C      107.310    -306.334     162.513
  N      108.527    -306.318     161.916
  N      106.326    -305.634     162.022
  C      105.187    -305.715     162.738
  C      104.948    -306.467     163.873
  C      106.031    -307.272     164.389
  O      105.967    -308.051     165.346
  N      103.666    -306.273     164.335
  C      103.138    -305.395     163.504
  N      104.015    -305.049     162.507
  O       97.370    -303.832     161.828
  O       98.106    -305.925     163.114
  H      105.095    -304.250     159.014
  H       96.759    -304.476     161.422
  H      107.994    -307.630     163.999
  H      102.142    -304.991     163.593
  H      104.591    -303.435     161.315
  H      103.970    -305.880     160.000
  H      109.355    -306.723     162.322
  H      101.596    -305.700     160.510
  H      108.643    -305.704     161.106
  H      101.893    -302.706     159.839
  H      100.174    -302.649     161.807
  H       99.588    -303.058     160.175
  P      102.024    -306.290     157.762
  C      101.058    -305.141     155.635
  O      102.141    -305.841     156.235
  O      100.689    -307.171     157.804
  O      103.198    -307.006     158.340
  H      100.904    -308.116     157.740
  H      100.584    -304.457     156.354
  H      100.313    -305.856     155.270
  H      101.429    -304.544     154.790
  H       98.490    -302.319     165.239
  H       97.562    -303.792     165.098
  H       97.306    -302.487     163.965

 3  4  5  6  7  8  9  10  11  12  23  26  30  31  33  0
 6-311+G(2d,p)
 ****
 35  36  37  38 0
 6-311+G(2d,p)
 ****
 1  2  13  14  15  16  17  18  19  20  21  22  24  25  27  28  29 0
 3-21G
 ****
 32  34  39  40  41  42  43  44  45  46  47  48  49 0
 3-21G
 ****


