%nproc=1
%NoSave
%Mem=1900MB
#P OB98/GEN NMR

erre ene a

0 1
  C      448.008    -367.205      68.933
  O      448.144    -366.849      67.577
  H      447.641    -368.234      68.990
  H      447.278    -366.546      69.412
  H      448.961    -367.142      69.463
  P      449.073    -365.603      67.199
  C      449.871    -366.488      64.908
  O      449.130    -365.489      65.596
  C      449.286    -366.781      63.528
  O      448.148    -367.659      63.657
  C      448.784    -365.516      62.824
  O      449.776    -364.825      62.082
  C      447.699    -366.073      61.904
  O      448.242    -366.487      60.642
  C      447.167    -367.281      62.677
  N      442.172    -366.319      62.121
  C      443.163    -366.337      61.155
  N      442.781    -366.019      59.902
  N      444.417    -366.620      61.420
  C      444.665    -366.819      62.733
  C      443.766    -366.807      63.780
  C      442.376    -366.565      63.471
  O      441.458    -366.559      64.283
  N      444.397    -367.010      64.989
  C      445.677    -367.053      64.675
  N      445.884    -367.023      63.311
  O      450.551    -366.112      67.559
  O      448.764    -364.325      67.921
  H      448.852    -365.786      60.331
  H      451.098    -365.357      67.842
  H      441.224    -366.127      61.857
  H      446.494    -367.153      65.388
  H      447.024    -368.150      62.020
  H      446.943    -365.311      61.686
  H      441.850    -365.710      59.661
  H      448.311    -364.836      63.538
  H      443.509    -365.834      59.207
  H      450.029    -367.309      62.921
  H      449.832    -367.384      65.531
  H      450.921    -366.192      64.820
  P      450.094    -363.282      62.361
  C      452.635    -363.707      61.860
  O      451.480    -362.919      61.668
  O      450.444    -363.272      63.924
  O      448.992    -362.330      62.027
  H      449.672    -362.984      64.449
  H      453.449    -363.287      61.307
  H      452.448    -364.703      61.518
  H      452.884    -363.728      62.901

 6  7  8  9  10  11  12  13  14  15  26  29  33  34 0
 6-311+G(2d,p)
 ****
 36  38  39  40  41 0
 6-311+G(2d,p)
 ****
 1  2  3  4  5  16  17  18  19  20  21  22  23  24  25 0
 3-21G
 ****
 27  28  30  31  32  35  37  42  43  44  45  46  47 0
 3-21G
 ****
 48  49 0
 3-21G
 ****


