%nproc=1
%NoSave
%Mem=1900MB
#P OB98/GEN NMR

erre ene a

0 1
  C     -526.912    -293.010      26.558
  O     -528.164    -292.889      25.903
  H     -526.203    -292.285      26.141
  H     -527.050    -292.803      27.620
  H     -526.520    -294.026      26.439
  P     -528.164    -293.138      24.315
  C     -527.990    -291.627      22.221
  O     -528.240    -291.691      23.616
  C     -528.305    -290.223      21.700
  O     -529.718    -289.974      21.912
  C     -527.510    -289.101      22.390
  O     -526.900    -288.238      21.417
  C     -528.564    -288.308      23.147
  O     -528.283    -286.917      23.198
  C     -529.836    -288.613      22.359
  N     -533.145    -285.158      24.131
  C     -532.303    -285.127      23.085
  N     -531.516    -286.113      22.606
  C     -531.687    -287.249      23.316
  C     -532.531    -287.439      24.399
  C     -533.274    -286.323      24.825
  N     -534.097    -286.334      25.928
  N     -532.435    -288.735      24.874
  C     -531.505    -289.299      24.113
  N     -531.022    -288.434      23.173
  O     -529.614    -293.768      24.044
  O     -527.074    -294.038      23.831
  H     -527.627    -286.777      23.912
  H     -529.502    -294.668      23.675
  H     -532.241    -284.176      22.557
  H     -531.135    -290.308      24.237
  H     -529.927    -287.972      21.471
  H     -528.635    -288.691      24.172
  H     -526.739    -289.485      23.066
  H     -528.127    -290.206      20.614
  H     -528.624    -292.351      21.701
  H     -534.491    -285.460      26.233
  H     -534.108    -287.169      26.509
  H     -526.942    -291.876      22.032
  P     -525.368    -287.824      21.694
  C     -524.181    -285.509      21.853
  O     -525.349    -286.273      22.136
  O     -524.723    -287.823      20.228
  O     -524.651    -288.759      22.615
  H     -523.958    -288.417      20.210
  H     -524.317    -284.507      22.203
  H     -524.009    -285.498      20.797
  H     -523.339    -285.948      22.347

 6  7  8  9  10  11  12  13  14  15  25  28  32  33  34  35 0
 6-311+G(2d,p)
 ****
 36  39  40 0
 6-311+G(2d,p)
 ****
 1  2  3  4  5  16  17  18  19  20  21  22  23  24 0
 3-21G
 ****
 26  27  29  30  31  37  38  41  42  43  44  45  46  47  48 0
 3-21G
 ****


