%nproc=1
%NoSave
%Mem=1900MB
#P OB98/GEN NMR

erre ene a

0 1
  C      221.538    -124.792     133.513
  O      221.935    -125.672     134.548
  H      221.204    -123.854     133.958
  H      220.717    -125.230     132.945
  H      222.381    -124.588     132.845
  P      222.504    -127.103     134.091
  C      221.382    -129.309     133.253
  O      221.238    -127.921     133.539
  C      220.223    -129.797     132.385
  O      219.011    -129.820     133.195
  C      219.929    -128.887     131.174
  O      219.394    -129.695     130.111
  C      218.835    -127.984     131.721
  O      218.164    -127.333     130.665
  C      218.031    -129.010     132.506
  N      213.231    -129.072     134.232
  C      213.881    -129.857     133.342
  N      215.168    -129.782     132.943
  C      215.799    -128.783     133.585
  C      215.273    -127.908     134.518
  C      213.911    -128.077     134.834
  N      213.243    -127.271     135.726
  N      216.237    -127.006     134.936
  C      217.323    -127.340     134.279
  N      217.115    -128.413     133.453
  O      222.843    -127.824     135.481
  O      223.677    -127.071     133.176
  H      217.570    -126.637     131.002
  H      223.777    -127.668     135.717
  H      213.285    -130.645     132.888
  H      218.287    -126.843     134.345
  H      217.444    -129.680     131.860
  H      219.248    -127.215     132.376
  H      220.813    -128.345     130.819
  H      220.417    -130.830     132.068
  H      221.400    -129.854     134.205
  H      222.331    -129.472     132.729
  H      212.258    -127.438     135.877
  H      213.725    -126.488     136.158
  P      220.295    -129.965     128.807
  C      220.544    -129.035     126.375
  O      219.940    -128.899     127.654
  O      219.655    -131.316     128.227
  O      221.758    -130.156     129.061
  H      220.365    -131.939     127.989
  H      220.201    -128.250     125.733
  H      220.278    -129.982     125.954
  H      221.608    -128.975     126.475

 6  7  8  9  10  11  12  13  14  15  25  28  32  33  34  35 0
 6-311+G(2d,p)
 ****
 36  37  40 0
 6-311+G(2d,p)
 ****
 1  2  3  4  5  16  17  18  19  20  21  22  23  24 0
 3-21G
 ****
 26  27  29  30  31  38  39 41  42  43  44  45  46  47  48 0
 3-21G
 ****


