%nproc=1
%NoSave
%Mem=1900MB
#P OB98/GEN NMR

erre ene a

0 1
  C     -379.112     -41.899     123.306
  O     -378.820     -43.254     123.011
  H     -378.166     -41.343     123.371
  H     -379.640     -41.819     124.258
  H     -379.720     -41.468     122.508
  P     -380.076     -44.262     122.982
  C     -380.342     -44.465     125.578
  O     -379.932     -45.084     124.353
  C     -380.592     -45.530     126.632
  O     -381.690     -46.394     126.238
  C     -379.413     -46.479     126.880
  O     -378.390     -45.885     127.684
  C     -380.140     -47.603     127.613
  O     -380.439     -47.187     128.965
  C     -381.413     -47.730     126.762
  N     -381.278     -48.703     125.678
  C     -381.486     -50.044     125.990
  O     -381.768     -50.382     127.143
  N     -381.344     -50.991     125.011
  C     -381.041     -50.624     123.791
  N     -380.916     -51.615     122.865
  C     -380.834     -49.216     123.397
  C     -380.976     -48.322     124.386
  O     -379.652     -45.350     121.875
  O     -381.407     -43.637     122.753
  H     -380.754     -47.977     129.438
  H     -380.290     -46.097     121.879
  H     -380.586     -48.966     122.384
  H     -380.841     -47.258     124.168
  H     -382.279     -48.020     127.387
  H     -379.541     -48.509     127.688
  H     -378.998     -46.851     125.949
  H     -380.905     -45.008     127.563
  H     -381.012     -52.573     123.168
  H     -381.268     -43.904     125.375
  H     -380.541     -51.450     121.935
  H     -379.569     -43.777     125.933
  P     -376.941     -45.727     127.021
  C     -375.976     -47.918     128.064
  O     -375.907     -46.495     127.983
  O     -376.596     -44.186     127.265
  O     -376.867     -46.098     125.579
  H     -376.070     -43.825     126.520
  H     -375.227     -48.273     128.741
  H     -375.809     -48.339     127.095
  H     -376.943     -48.209     128.417

 6  7  8  9  10  11  12  13  14  15  16  26  30  31  32  33  35 0
 6-311+G(2d,p)
 ****
 37  38 0
 6-311+G(2d,p)
 ****
 1  2  3  4  5  17  18  19  20  21  22  23  24  25 0
 3-21G
 ****
 27  28  29  34  36  39  40  41  42  43  44  45  46 0
 3-21G
 ****


