%nproc=1
%NoSave
%Mem=1900MB
#P OB98/GEN NMR

erre ene a

0 1
  C        8.389      19.740      51.216
  O        8.962      19.444      49.954
  P        9.143      17.896      49.567
  C       11.543      17.885      50.563
  O       10.244      17.303      50.574
  C       12.392      17.328      49.418
  O       13.590      18.131      49.288
  C       12.817      15.870      49.609
  O       12.795      15.236      48.328
  C       14.255      15.980      50.078
  O       14.996      14.796      49.790
  C       14.722      17.236      49.326
  N       15.877      17.863      49.960
  C       17.099      17.190      49.852
  O       17.148      16.086      49.311
  N       18.220      17.761      50.403
  C       18.110      18.852      51.095
  N       19.249      19.379      51.618
  C       16.819      19.526      51.338
  C       15.760      18.995      50.730
  O        9.919      17.965      48.171
  O        7.867      17.125      49.470
  H       14.832      14.555      48.850
  H        9.669      17.216      47.596
  H       16.777      20.414      51.954
  H       14.777      19.436      50.832
  H       14.984      16.991      48.289
  H       14.283      16.149      51.163
  H       12.169      15.326      50.302
  H       11.823      17.438      48.486
  H       20.119      18.892      51.450
  H       12.046      17.652      51.506
  H       19.260      20.227      52.172
  H       11.452      18.973      50.484
  P       12.359      13.694      48.270
  C       14.789      13.151      47.642
  O       13.712      12.870      48.516
  O       12.140      13.485      46.693
  O       11.155      13.267      49.041
  H       11.805      12.585      46.524
  H       15.678      12.629      48.004
  H       14.993      14.224      47.619
  H       14.556      12.790      46.636
  H        8.329      20.801      51.340
  H        8.999      19.324      51.991
  H        7.407      19.318      51.270

 3  4  5  6  7  8  9  10  11  12  13  21  23  27  28  29  30  32 0
 6-311+G(2d,p)
 ****
 34  35 0
 6-311+G(2d,p)
 ****
 1  2  14  15  16  17  18  19  20  22  24  25  26 0
 3-21G
 ****
 31  33  36  37  38  39  40  41  42  43  44  45  46 0
 3-21G
 ****


