%nproc=1
%NoSave
%Mem=1900MB
#P OB98/GEN NMR

erre ene a

0 1
  C      449.718     804.863     441.835
  O      449.140     806.147     441.987
  H      449.498     804.275     442.726
  H      450.802     804.957     441.731
  H      449.299     804.358     440.962
  P      449.188     807.115     440.705
  C      451.708     807.418     441.368
  O      450.513     808.002     440.888
  C      452.690     808.504     441.821
  O      453.039     809.322     440.678
  C      452.131     809.432     442.899
  O      453.189     809.764     443.805
  C      451.704     810.668     442.129
  O      451.662     811.824     442.954
  C      452.739     810.697     440.992
  N      452.264     811.425     439.820
  C      453.124     812.392     439.290
  O      454.214     812.606     439.821
  N      452.713     813.121     438.201
  C      451.519     812.948     437.730
  N      451.170     813.714     436.657
  C      450.558     811.976     438.292
  C      450.995     811.248     439.312
  O      447.998     808.134     441.025
  O      449.065     806.405     439.398
  H      451.598     812.619     442.365
  H      447.954     808.410     441.954
  H      449.565     811.876     437.866
  H      450.361     810.509     439.787
  H      453.674     811.169     441.345
  H      450.695     810.515     441.715
  H      451.302     808.997     443.459
  H      453.618     808.023     442.153
  H      451.843     814.380     436.315
  H      452.176     806.811     440.593
  H      450.243     813.701     436.240
  H      451.450     806.764     442.208
  P      453.609     808.717     444.944
  C      453.150     810.255     446.957
  O      454.118     809.524     446.234
  O      454.490     807.599     444.496
  O      452.190     808.148     445.446
  H      452.294     807.193     445.619
  H      453.618     810.743     447.787
  H      452.394     809.588     447.315
  H      452.705     810.988     446.317

 6  7  8  9  10  11  12  13  14  15  16  26  30  31  32  33  35 0
 6-311+G(2d,p)
 ****
 37  38 0
 6-311+G(2d,p)
 ****
 1  2  3  4  5  17  18  19  20  21  22  23  24  25 0
 3-21G
 ****
 27  28  29  34  36  39  40  41  42  43  44  45  46 0
 3-21G
 ****


