%nproc=1
%NoSave
%Mem=1900MB
#P OB98/GEN NMR

erre ene a

0 1
  C      -58.632      27.415      16.997
  O      -59.239      28.634      16.616
  H      -59.070      27.085      17.941
  H      -57.557      27.557      17.137
  H      -58.810      26.649      16.237
  P      -58.746      29.281      15.234
  C      -56.629      30.595      14.492
  O      -57.419      30.115      15.572
  C      -55.602      31.596      15.011
  O      -56.279      32.706      15.645
  C      -54.671      31.029      16.074
  O      -53.639      30.234      15.521
  C      -54.170      32.302      16.735
  O      -53.080      32.877      16.004
  C      -55.397      33.219      16.669
  N      -55.653      35.688      21.129
  C      -54.910      35.901      20.021
  N      -54.910      35.203      18.866
  C      -55.813      34.209      18.914
  C      -56.642      33.873      19.971
  C      -56.541      34.667      21.125
  N      -57.278      34.436      22.262
  N      -57.402      32.765      19.657
  C      -57.047      32.442      18.431
  N      -56.092      33.288      17.939
  O      -59.844      30.410      14.952
  O      -58.626      28.326      14.095
  H      -52.761      33.632      16.536
  H      -60.490      30.080      14.299
  H      -54.218      36.736      20.073
  H      -57.442      31.608      17.864
  H      -55.133      34.245      16.387
  H      -53.822      32.104      17.748
  H      -55.247      30.453      16.811
  H      -55.030      31.986      14.160
  H      -57.277      31.089      13.760
  H      -56.132      29.746      14.011
  H      -57.105      35.002      23.076
  H      -57.859      33.609      22.309
  P      -53.378      28.792      16.170
  C      -52.489      27.911      18.458
  O      -52.744      29.032      17.622
  O      -52.161      28.201      15.315
  O      -54.559      27.883      16.155
  H      -52.267      27.236      15.210
  H      -52.069      28.245      19.384
  H      -51.801      27.252      17.971
  H      -53.405      27.392      18.648

 6  7  8  9  10  11  12  13  14  15  25  28  32  33  34  35 0
 6-311+G(2d,p)
 ****
 36  37  40 0
 6-311+G(2d,p)
 ****
 1  2  3  4  5  16  17  18  19  20  21  22  23  24 0
 3-21G
 ****
 26  27  29  30  31  38  39 41  42  43  44  45  46  47  48 0
 3-21G
 ****


