%nproc=1
%NoSave
%Mem=1900MB
#P OB98/GEN NMR

erre ene a

0 1
  C     -188.530       5.529     817.295
  O     -188.314       6.670     816.489
  H     -189.592       5.249     817.235
  H     -188.289       5.738     818.344
  H     -187.929       4.687     816.938
  P     -186.898       7.418     816.615
  C     -186.092       6.290     814.432
  O     -186.334       7.526     815.115
  C     -185.519       6.533     813.030
  O     -186.514       7.172     812.194
  C     -184.318       7.492     813.019
  O     -183.151       6.932     813.594
  C     -184.300       7.949     811.567
  O     -183.586       7.070     810.693
  C     -185.799       7.936     811.205
  N     -186.344       9.291     811.058
  C     -185.840      10.049     810.012
  O     -184.981       9.640     809.236
  N     -186.344      11.318     809.901
  C     -187.221      11.910     810.753
  O     -187.605      13.062     810.620
  C     -187.707      11.054     811.867
  C     -187.246       9.815     811.975
  O     -185.925       6.822     817.587
  O     -187.306       8.927     816.955
  H     -182.639       7.302     810.766
  H     -186.536       9.428     817.314
  H     -185.998      11.877     809.134
  H     -188.413      11.500     812.564
  H     -187.581       9.179     812.784
  H     -185.957       7.414     810.247
  H     -183.831       8.934     811.467
  H     -184.576       8.362     813.619
  H     -185.271       5.568     812.583
  H     -187.050       5.760     814.349
  H     -185.402       5.678     815.022
  P     -181.996       7.835     814.231
  C     -182.768       8.157     816.703
  O     -181.893       7.474     815.799
  O     -181.955       9.271     813.823
  O     -180.675       7.127     813.632
  H     -180.006       7.817     813.484
  H     -182.586       7.816     817.701
  H     -183.784       7.955     816.437
  H     -182.587       9.210     816.647

 6  7  8  9  10  11  12  13  14  15  16  26  31  32  33  34  35 0
 6-311+G(2d,p)
 ****
 36  37 0
 6-311+G(2d,p)
 ****
 1  2  3  4  5  17  18  19  20  21  22  23  24  25 0
 3-21G
 ****
 27  28  29  30  38  39  40  41  42  43  44  45 0
 3-21G
 ****


