%nproc=1
%NoSave
%Mem=1900MB
#P OB98/GEN NMR

erre ene a

0 1
  C     -646.311    -915.703    -660.175
  O     -646.892    -916.643    -661.053
  H     -645.622    -916.232    -659.506
  H     -647.087    -915.232    -659.571
  H     -645.747    -914.941    -660.718
  P     -647.712    -916.105    -662.323
  C     -646.441    -917.517    -664.063
  O     -646.725    -916.209    -663.583
  C     -644.992    -917.907    -663.753
  O     -644.796    -917.879    -662.311
  C     -644.613    -919.321    -664.244
  O     -643.215    -919.293    -664.564
  C     -644.852    -920.153    -662.998
  O     -644.198    -921.402    -663.075
  C     -644.352    -919.194    -661.915
  N     -644.836    -919.556    -660.579
  C     -643.916    -920.157    -659.726
  O     -642.754    -920.414    -660.061
  N     -644.371    -920.501    -658.486
  C     -645.660    -920.367    -658.054
  O     -646.029    -920.724    -656.938
  C     -646.601    -919.762    -659.011
  C     -646.151    -919.390    -660.205
  O     -648.368    -914.773    -662.155
  O     -648.781    -917.260    -662.624
  H     -644.554    -921.917    -663.830
  H     -649.586    -916.879    -663.012
  H     -643.719    -920.930    -657.856
  H     -647.629    -919.645    -658.699
  H     -646.820    -918.947    -660.936
  H     -643.254    -919.179    -661.879
  H     -645.925    -920.345    -662.866
  H     -645.196    -919.651    -665.098
  H     -644.327    -917.150    -664.181
  H     -646.598    -917.514    -665.148
  H     -647.129    -918.233    -663.605
  P     -642.674    -918.717    -665.955
  C     -640.221    -918.124    -665.438
  O     -641.539    -917.620    -665.665
  O     -643.738    -918.249    -666.890
  O     -641.857    -919.934    -666.611
  H     -641.869    -919.854    -667.583
  H     -639.553    -917.308    -665.257
  H     -639.894    -918.668    -666.299
  H     -640.229    -918.774    -664.588

 6  7  8  9  10  11  12  13  14  15  16  26  31  32  33  34  35 0
 6-311+G(2d,p)
 ****
 36  37 0
 6-311+G(2d,p)
 ****
 1  2  3  4  5  17  18  19  20  21  22  23  24  25 0
 3-21G
 ****
 27  28  29  30  38  39  40  41  42  43  44  45 0
 3-21G
 ****


