%nproc=1
%NoSave
%Mem=1900MB
#P OB98/GEN NMR

erre ene a

0 1
  C      145.431     -52.914      77.439
  O      145.483     -53.933      78.418
  H      144.695     -53.194      76.680
  H      146.408     -52.797      76.958
  H      145.125     -51.971      77.899
  P      146.551     -53.743      79.600
  C      148.577     -54.494      78.190
  O      147.931     -53.406      78.844
  C      149.706     -53.981      77.293
  O      150.378     -55.126      76.701
  C      149.217     -53.088      76.147
  O      150.185     -52.064      75.905
  C      149.186     -54.038      74.958
  O      149.271     -53.348      73.712
  C      150.377     -54.939      75.276
  N      153.065     -58.852      73.420
  C      153.412     -57.801      74.194
  N      152.625     -56.811      74.663
  C      151.338     -57.019      74.306
  C      150.833     -58.037      73.520
  C      151.764     -58.991      73.059
  N      151.428     -60.044      72.242
  N      149.474     -57.881      73.338
  C      149.162     -56.785      74.009
  N      150.264     -56.217      74.593
  O      146.623     -54.856      80.590
  O      146.132     -52.319      80.197
  H      150.190     -53.032      73.593
  H      145.983     -51.661      79.489
  H      154.466     -57.739      74.463
  H      148.168     -56.356      74.084
  H      151.339     -54.498      74.977
  H      148.251     -54.607      74.962
  H      148.241     -52.639      76.337
  H      150.446     -53.465      77.915
  H      147.855     -55.053      77.589
  H      152.159     -60.678      71.957
  H      150.464     -60.169      71.964
  H      148.978     -55.160      78.966
  P      149.860     -50.560      76.360
  C      148.448     -49.745      74.356
  O      148.443     -50.130      75.726
  O      150.960     -49.571      76.171
  O      149.498     -50.729      77.914
  H      149.903     -49.993      78.418
  H      147.455     -49.484      74.055
  H      148.799     -50.560      73.758
  H      149.094     -48.902      74.225

 6  7  8  9  10  11  12  13  14  15  25  28  32  33  34  35 0
 6-311+G(2d,p)
 ****
 36  39  40 0
 6-311+G(2d,p)
 ****
 1  2  3  4  5  16  17  18  19  20  21  22  23  24 0
 3-21G
 ****
 26  27  29  30  31  37  38  41  42  43  44  45  46  47 0
 3-21G
 ****
 48 0
 3-21G
 ****


