%nproc=1
%NoSave
%Mem=1900MB
#P OB98/GEN NMR

erre ene a

0 1
  C     -136.395      40.958    -103.790
  O     -136.958      40.167    -102.763
  H     -135.953      40.296    -104.538
  H     -135.613      41.609    -103.392
  H     -137.170      41.559    -104.273
  P     -137.572      40.906    -101.482
  C     -139.999      40.951    -102.370
  O     -138.862      41.710    -101.989
  C     -141.294      41.697    -102.027
  O     -141.292      42.985    -102.705
  C     -142.572      40.957    -102.459
  O     -143.609      41.320    -101.539
  C     -142.826      41.572    -103.822
  O     -144.124      41.292    -104.281
  C     -142.471      43.036    -103.535
  N     -142.258      43.807    -104.749
  C     -143.252      44.731    -105.076
  O     -144.248      44.851    -104.364
  N     -143.108      45.475    -106.220
  C     -142.098      45.264    -107.002
  N     -142.022      46.025    -108.128
  C     -141.054      44.257    -106.722
  C     -141.193      43.574    -105.586
  O     -136.611      41.710    -100.671
  O     -138.206      39.715    -100.617
  H     -144.190      41.427    -105.253
  H     -137.635      39.526     -99.849
  H     -140.240      44.107    -107.415
  H     -140.479      42.810    -105.294
  H     -143.265      43.520    -102.948
  H     -142.136      41.160    -104.565
  H     -142.448      39.872    -102.483
  H     -141.304      41.907    -100.950
  H     -142.765      46.697    -108.286
  H     -139.960      40.003    -101.828
  H     -141.293      45.936    -108.819
  H     -139.972      40.742    -103.445
  P     -144.968      40.483    -101.386
  C     -144.084      38.514     -99.971
  O     -144.617      38.928    -101.226
  O     -145.983      40.773    -102.442
  O     -145.540      40.882     -99.942
  H     -146.515      40.839     -99.961
  H     -143.894      37.461     -99.994
  H     -144.788      38.733     -99.195
  H     -143.170      39.037     -99.782

 6  7  8  9  10  11  12  13  14  15  16  26  30  31  32  33  35 0
 6-311+G(2d,p)
 ****
 37  38 0
 6-311+G(2d,p)
 ****
 1  2  3  4  5  17  18  19  20  21  22  23  24  25 0
 3-21G
 ****
 27  28  29  34  36  39  40  41  42  43  44  45  46 0
 3-21G
 ****


