%nproc=1
%NoSave
%Mem=1900MB
#P OB98/GEN NMR

erre ene a

0 1
  C     -617.786    -897.420    -895.992
  O     -616.769    -897.290    -895.022
  H     -618.639    -896.810    -895.692
  H     -618.102    -898.470    -896.072
  H     -617.431    -897.080    -896.972
  P     -615.409    -898.100    -895.302
  C     -613.988    -895.920    -895.382
  O     -614.433    -897.090    -896.062
  C     -614.843    -894.710    -895.782
  O     -616.202    -894.930    -895.332
  C     -614.377    -893.390    -895.142
  O     -614.725    -892.320    -896.042
  C     -615.238    -893.330    -893.912
  O     -615.209    -892.020    -893.342
  C     -616.551    -893.820    -894.492
  N     -621.316    -893.170    -892.742
  C     -620.685    -892.670    -893.832
  N     -619.420    -892.890    -894.232
  C     -618.812    -893.760    -893.412
  C     -619.330    -894.380    -892.282
  C     -620.663    -894.040    -891.962
  N     -621.322    -894.550    -890.862
  N     -618.400    -895.210    -891.692
  C     -617.322    -895.100    -892.452
  N     -617.524    -894.230    -893.502
  O     -615.833    -899.150    -896.442
  O     -614.818    -898.780    -894.112
  H     -614.284    -891.750    -893.182
  H     -616.069    -900.000    -896.032
  H     -621.261    -891.980    -894.432
  H     -616.385    -895.610    -892.302
  H     -617.035    -893.050    -895.122
  H     -614.862    -894.010    -893.132
  H     -613.291    -893.350    -894.962
  H     -614.869    -894.640    -896.872
  H     -612.936    -895.750    -895.652
  H     -614.063    -896.070    -894.302
  H     -622.260    -894.250    -890.692
  H     -620.826    -895.190    -890.252
  P     -613.602    -891.260    -896.492
  C     -613.930    -890.660    -899.022
  O     -613.277    -891.480    -898.042
  O     -612.291    -891.860    -895.782
  O     -613.848    -889.850    -896.052
  H     -611.669    -891.130    -895.602
  H     -613.598    -890.940    -900.000
  H     -613.690    -889.633    -898.845
  H     -614.989    -890.796    -898.952

 6  7  8  9  10  11  12  13  14  15  25  28  32  33  34  35 0
 6-311+G(2d,p)
 ****
 36  37  40 0
 6-311+G(2d,p)
 ****
 1  2  3  4  5  16  17  18  19  20  21  22  23  24 0
 3-21G
 ****
 26  27  29  30  31  38  39 41  42  43  44  45  46  47  48 0
 3-21G
 ****


