%nproc=1
%NoSave
%Mem=1900MB
#P OB98/GEN NMR

erre ene a

0 1
  C      153.600      18.318    -147.243
  O      153.129      19.421    -147.992
  H      153.456      17.409    -147.833
  H      153.042      18.225    -146.308
  H      154.665      18.438    -147.032
  P      153.217      20.858    -147.284
  C      155.289      21.636    -148.603
  O      153.892      21.806    -148.392
  C      155.656      21.978    -150.048
  O      155.135      20.938    -150.914
  C      155.079      23.312    -150.523
  O      156.031      23.964    -151.362
  C      153.869      22.906    -151.345
  O      153.524      23.882    -152.325
  C      154.323      21.566    -151.922
  N      150.698      20.708    -155.408
  C      151.768      21.530    -155.400
  N      152.697      21.686    -154.433
  C      152.463      20.842    -153.411
  C      151.413      19.952    -153.275
  C      150.493      19.905    -154.338
  N      149.385      19.089    -154.340
  N      151.490      19.295    -152.063
  C      152.578      19.770    -151.484
  N      153.187      20.721    -152.254
  O      153.867      20.880    -145.942
  O      151.689      21.328    -147.313
  H      152.726      23.571    -152.802
  H      151.274      21.143    -148.176
  H      151.894      22.150    -156.284
  H      152.952      19.472    -150.511
  H      154.923      21.681    -152.833
  H      153.004      22.770    -150.685
  H      154.806      23.969    -149.696
  H      156.748      21.956    -150.148
  H      155.581      20.603    -148.386
  H      148.783      19.106    -155.150
  H      149.225      18.469    -153.560
  H      155.817      22.299    -147.910
  P      156.064      25.566    -151.379
  C      158.136      26.007    -149.904
  O      157.589      26.048    -151.218
  O      155.079      26.249    -150.494
  O      155.769      25.900    -152.922
  H      155.210      26.699    -152.970
  H      159.149      26.350    -149.929
  H      158.108      25.002    -149.537
  H      157.562      26.638    -149.259

 6  7  8  9  10  11  12  13  14  15  25  28  32  33  34  35 0
 6-311+G(2d,p)
 ****
 36  39  40 0
 6-311+G(2d,p)
 ****
 1  2  3  4  5  16  17  18  19  20  21  22  23  24 0
 3-21G
 ****
 26  27  29  30  31  37  38  41  42  43  44  45  46  47 0
 3-21G
 ****
 48 0
 3-21G
 ****


