%nproc=1
%NoSave
%Mem=1900MB
#P OB98/GEN NMR

erre ene a

0 1
  C       97.733    -389.113    -222.835
  O       98.334    -389.141    -224.133
  P       99.005    -387.783    -224.665
  C       97.717    -387.787    -226.938
  O       98.962    -387.869    -226.268
  C       97.718    -388.665    -228.197
  O       98.454    -387.996    -229.266
  C       98.342    -390.053    -228.001
  O       97.572    -390.972    -228.793
  C       99.733    -389.889    -228.584
  O      100.304    -391.137    -228.958
  C       99.440    -388.933    -229.745
  N      100.636    -388.251    -230.229
  C      101.151    -388.676    -231.450
  O      100.694    -389.631    -232.074
  N      102.248    -387.991    -231.907
  C      102.902    -386.997    -231.242
  O      103.883    -386.417    -231.699
  C      102.382    -386.669    -229.907
  C      101.290    -387.303    -229.472
  O      100.541    -388.024    -224.295
  O       98.392    -386.557    -224.069
  H      100.829    -388.946    -224.405
  H       99.761    -391.535    -229.671
  H      102.617    -388.262    -232.804
  H      102.913    -385.929    -229.322
  H      100.894    -387.101    -228.485
  H       98.989    -389.481    -230.584
  H      100.390    -389.412    -227.847
  H       98.341    -390.376    -226.956
  H       96.680    -388.772    -228.536
  H       97.521    -386.750    -227.235
  H       96.916    -388.079    -226.253
  P       96.209    -391.558    -228.169
  C       96.391    -394.124    -228.652
  O       95.838    -392.878    -229.000
  O       95.162    -390.475    -228.725
  O       96.189    -391.670    -226.681
  H       95.277    -390.281    -229.673
  H       95.840    -394.910    -229.178
  H       96.314    -394.304    -227.579
  H       97.440    -394.166    -228.962
  H       97.328    -390.077    -222.609
  H       96.950    -388.384    -222.820
  H       98.472    -388.857    -222.105

 3  4  5  6  7  8  9  10  11  12  13  24  28  29  30  31  32 0
 6-311+G(2d,p)
 ****
 33  34 0
 6-311+G(2d,p)
 ****
 1  2  14  15  16  17  18  19  20  21  22  23  25  26  27 0
 3-21G
 ****
 35  36  37  38  39  40  41  42  43  44  45 0
 3-21G
 ****


