%nproc=1
%NoSave
%Mem=1900MB
#P OB98/GEN NMR

erre ene a

0 1
  C     -435.456     309.441      31.849
  O     -434.735     308.215      31.839
  P     -434.975     307.204      30.620
  C     -432.629     307.556      29.557
  O     -434.037     307.700      29.408
  C     -432.146     306.241      28.945
  O     -432.569     306.186      27.554
  C     -430.625     306.055      28.963
  O     -430.371     304.652      29.114
  C     -430.209     306.480      27.567
  O     -428.935     305.959      27.195
  C     -431.388     305.946      26.757
  N     -429.247     306.632      22.164
  C     -428.877     305.882      23.222
  N     -429.502     305.747      24.412
  C     -430.614     306.505      24.452
  C     -431.093     307.344      23.460
  C     -430.358     307.397      22.265
  N     -430.732     308.158      21.175
  N     -432.248     307.974      23.876
  C     -432.459     307.522      25.099
  N     -431.512     306.609      25.473
  O     -436.449     307.591      30.131
  O     -434.873     305.761      30.957
  H     -428.813     306.113      26.242
  H     -437.066     306.857      30.326
  H     -427.967     305.298      23.095
  H     -433.278     307.817      25.742
  H     -431.313     304.868      26.573
  H     -430.154     307.576      27.515
  H     -430.111     306.618      29.749
  H     -432.639     305.410      29.465
  H     -432.393     307.551      30.625
  H     -430.232     308.031      20.311
  H     -431.658     308.575      21.172
  H     -432.122     308.400      29.093
  P     -429.068     304.237      29.958
  C     -430.556     303.160      31.792
  O     -429.531     304.090      31.485
  O     -428.182     305.575      29.957
  O     -428.316     303.078      29.388
  H     -427.235     305.345      30.038
  H     -430.367     302.749      32.788
  H     -430.592     302.339      31.069
  H     -431.515     303.675      31.793
  H     -435.190     310.004      32.719
  H     -436.506     309.237      31.863
  H     -435.214     310.004      30.972

 3  4  5  6  7  8  9  10  11  12  22  25  29  30  31  32 0
 6-311+G(2d,p)
 ****
 33  36  37 0
 6-311+G(2d,p)
 ****
 1  2  13  14  15  16  17  18  19  20  21  23  24  26 0
 3-21G
 ****
 27  28  34  35  38  39  40  41  42  43  44  45  46  47  48 0
 3-21G
 ****


