%nproc=1
%NoSave
%Mem=1900MB
#P OB98/GEN NMR

erre ene a

0 1
  C       26.706       7.114      47.285
  O       27.811       6.442      46.709
  P       28.429       5.200      47.513
  C       28.094       3.402      45.653
  O       27.734       3.873      46.946
  C       26.849       2.894      44.924
  O       25.865       3.944      44.815
  C       27.122       2.439      43.497
  O       27.700       1.144      43.468
  C       25.730       2.495      42.884
  O       24.987       1.303      43.182
  C       25.116       3.715      43.602
  N       25.076       4.902      42.755
  C       23.991       4.995      41.887
  O       23.122       4.125      41.809
  N       23.961       6.100      41.082
  C       24.915       7.074      41.021
  O       24.860       8.014      40.237
  C       26.054       6.909      41.940
  C       26.085       5.845      42.746
  O       27.817       5.352      48.985
  O       29.920       5.156      47.534
  H       24.076       1.455      42.860
  H       28.474       5.066      49.647
  H       23.171       6.199      40.465
  H       26.829       7.663      41.917
  H       26.921       5.698      43.420
  H       24.092       3.487      43.921
  H       25.763       2.588      41.794
  H       27.767       3.167      42.989
  H       26.413       2.076      45.513
  H       28.820       2.592      45.753
  H       28.562       4.218      45.094
  P       29.178       1.021      42.850
  C       30.125      -0.706      44.566
  O       30.115       0.621      44.087
  O       29.507       2.560      42.555
  O       29.238       0.130      41.655
  H       29.089       3.154      43.202
  H       30.008      -1.427      43.752
  H       29.316      -0.838      45.288
  H       31.079      -0.892      45.067
  H       26.402       7.915      46.644
  H       26.986       7.508      48.239
  H       25.895       6.427      47.407

 3  4  5  6  7  8  9  10  11  12  13  23  28  29  30  31  32 0
 6-311+G(2d,p)
 ****
 33  34 0
 6-311+G(2d,p)
 ****
 1  2  14  15  16  17  18  19  20  21  22  24  25  26 0
 3-21G
 ****
 27  35  36  37  38  39  40  41  42  43  44  45 0
 3-21G
 ****


