%nproc=1
%NoSave
%Mem=1900MB
#P OB98/GEN NMR

erre ene a

0 1
  C      -68.740     -56.136    -264.755
  O      -69.464     -57.272    -264.263
  P      -70.871     -57.013    -263.542
  C      -72.552     -56.535    -265.470
  O      -72.047     -57.473    -264.531
  C      -73.974     -56.912    -265.893
  O      -74.608     -55.856    -266.643
  C      -74.040     -58.139    -266.791
  O      -73.986     -59.341    -266.036
  C      -75.415     -57.972    -267.419
  O      -76.430     -58.416    -266.497
  C      -75.502     -56.453    -267.610
  N      -76.697     -56.609    -272.588
  C      -77.260     -57.193    -271.507
  N      -76.873     -57.120    -270.216
  C      -75.794     -56.331    -270.088
  C      -75.112     -55.671    -271.097
  C      -75.604     -55.831    -272.402
  N      -75.028     -55.233    -273.499
  N      -74.042     -54.966    -270.584
  C      -74.089     -55.184    -269.286
  N      -75.123     -56.010    -268.939
  O      -70.992     -55.417    -263.546
  O      -70.951     -57.563    -262.156
  H      -76.198     -58.057    -265.621
  H      -71.450     -55.117    -262.739
  H      -78.138     -57.801    -271.704
  H      -73.401     -54.767    -268.562
  H      -76.508     -56.065    -267.412
  H      -75.536     -58.561    -268.331
  H      -73.265     -58.101    -267.566
  H      -74.562     -57.090    -264.983
  H      -71.898     -56.492    -266.347
  H      -75.454     -55.372    -274.400
  H      -74.226     -54.634    -273.362
  H      -72.528     -55.536    -265.022
  P      -72.878     -60.424    -266.457
  C      -70.582     -59.211    -266.502
  O      -71.522     -59.951    -265.749
  O      -72.640     -60.107    -268.009
  O      -73.283     -61.839    -266.229
  H      -72.388     -60.924    -268.481
  H      -69.888     -58.722    -265.812
  H      -71.074     -58.445    -267.106
  H      -70.016     -59.885    -267.152
  H      -67.827     -56.463    -265.207
  H      -68.519     -55.475    -263.943
  H      -69.334     -55.622    -265.482

 3  4  5  6  7  8  9  10  11  12  22  25  29  30  31  32 0
 6-311+G(2d,p)
 ****
 33  36  37 0
 6-311+G(2d,p)
 ****
 1  2  13  14  15  16  17  18  19  20  21  23  24  26 0
 3-21G
 ****
 27  28  34  35  38  39  40  41  42  43  44  45  46  47  48 0
 3-21G
 ****


