%nproc=1
%NoSave
%Mem=1900MB
#P OB98/GEN NMR

erre ene a

0 1
  C     -761.041    2504.394     184.354
  O     -760.692    2504.953     185.593
  P     -760.615    2503.986     186.907
  C     -758.375    2504.939     187.738
  O     -759.074    2503.787     187.287
  C     -757.131    2504.574     188.546
  O     -757.493    2503.863     189.771
  C     -756.121    2503.729     187.824
  O     -754.794    2504.167     188.258
  C     -756.413    2502.351     188.310
  O     -755.347    2501.441     188.107
  C     -756.736    2502.646     189.793
  N     -757.475    2501.562     190.442
  C     -756.717    2500.538     190.999
  O     -755.509    2500.508     190.824
  N     -757.373    2499.532     191.736
  C     -758.675    2499.541     191.740
  N     -759.308    2498.546     192.449
  C     -759.508    2500.530     191.005
  C     -758.846    2501.512     190.404
  O     -761.437    2502.734     186.786
  O     -761.178    2504.936     188.076
  H     -755.667    2500.499     188.259
  H     -761.640    2504.378     188.713
  H     -760.584    2500.420     190.952
  H     -759.371    2502.286     189.869
  H     -755.804    2502.844     190.363
  H     -757.295    2501.928     187.819
  H     -756.150    2503.821     186.740
  H     -756.666    2505.535     188.901
  H     -758.708    2497.845     192.908
  H     -759.084    2505.545     188.350
  H     -760.333    2498.496     192.560
  H     -758.133    2505.567     186.894
  P     -753.971    2505.135     187.295
  C     -754.449    2507.206     188.748
  O     -754.508    2506.635     187.479
  O     -754.518    2504.735     185.832
  O     -752.455    2504.931     187.301
  H     -753.816    2504.909     185.159
  H     -754.582    2508.312     188.626
  H     -753.485    2507.032     189.252
  H     -755.238    2506.860     189.386
  H     -761.045    2505.159     183.606
  H     -762.015    2503.957     184.422
  H     -760.329    2503.640     184.090

 3  4  5  6  7  8  9  10  11  12  13  23  27  28  29  30  32 0
 6-311+G(2d,p)
 ****
 34  35 0
 6-311+G(2d,p)
 ****
 1  2  14  15  16  17  18  19  20  21  22  24  25  26 0
 3-21G
 ****
 31  33  36  37  38  39  40  41  42  43  44  45  46 0
 3-21G
 ****


