%nproc=1
%NoSave
%Mem=1900MB
#P OB98/GEN NMR

erre ene a

0 1
  C      618.916     138.462      -5.517
  O      617.837     138.418      -4.606
  H      618.887     139.398      -6.082
  H      619.853     138.419      -4.962
  H      618.871     137.616      -6.205
  P      616.364     138.493      -5.238
  C      615.447     139.873      -3.249
  O      615.339     138.678      -4.006
  C      614.473     139.834      -2.072
  O      613.122     139.869      -2.609
  C      614.599     138.585      -1.187
  O      614.694     138.954       0.199
  C      613.300     137.838      -1.400
  O      612.847     137.163      -0.229
  C      612.345     138.951      -1.829
  N      608.020     136.256      -1.526
  C      608.721     136.916      -0.590
  N      609.808     137.696      -0.750
  C      610.152     137.787      -2.046
  C      609.516     137.182      -3.125
  C      608.412     136.362      -2.825
  N      607.730     135.635      -3.774
  N      610.159     137.488      -4.308
  C      611.180     138.234      -3.956
  N      611.234     138.428      -2.597
  O      616.097     136.987      -5.729
  O      616.221     139.464      -6.358
  H      612.026     136.688      -0.471
  H      615.963     136.989      -6.695
  H      608.368     136.806       0.427
  H      611.946     138.624      -4.621
  H      611.944     139.497      -0.967
  H      613.440     137.099      -2.202
  H      615.465     137.964      -1.455
  H      614.603     140.748      -1.475
  H      615.210     140.732      -3.889
  H      607.031     134.989      -3.455
  H      608.088     135.628      -4.720
  H      616.475     139.975      -2.889
  P      616.139     138.786       0.887
  C      615.499     138.340       3.362
  O      616.024     139.266       2.418
  O      617.014     139.936       0.183
  O      616.750     137.439       0.675
  H      617.805     139.543      -0.233
  H      615.481     138.791       4.332
  H      616.117     137.467       3.386
  H      614.505     138.066       3.078

 6  7  8  9  10  11  12  13  14  15  25  28  32  33  34  35 0
 6-311+G(2d,p)
 ****
 36  39  40 0
 6-311+G(2d,p)
 ****
 1  2  3  4  5  16  17  18  19  20  21  22  23  24 0
 3-21G
 ****
 26  27  29  30  31  37  38  41  42  43  44  45  46  47  48 0
 3-21G
 ****


