%nproc=1
%NoSave
%Mem=1900MB
#P OB98/GEN NMR

erre ene a

0 1
  C     -156.660    -898.206     532.877
  O     -156.662    -898.896     531.623
  H     -156.852    -898.966     533.661
  H     -157.457    -897.466     532.898
  H     -155.695    -897.756     533.069
  P     -156.313    -898.066     530.298
  C     -158.794    -897.756     529.658
  O     -157.579    -897.096     530.003
  C     -159.933    -896.746     529.564
  O     -159.443    -895.556     528.889
  C     -161.157    -897.266     528.798
  O     -162.333    -896.756     529.417
  C     -161.020    -896.636     527.422
  O     -162.258    -896.466     526.751
  C     -160.331    -895.296     527.772
  N     -160.748    -892.736     523.433
  C     -161.707    -893.036     524.400
  N     -162.967    -892.626     524.144
  N     -161.426    -893.696     525.488
  C     -160.138    -894.036     525.625
  C     -159.078    -893.806     524.748
  C     -159.385    -893.076     523.526
  O     -158.613    -892.776     522.622
  N     -157.916    -894.326     525.217
  C     -158.238    -894.906     526.354
  N     -159.572    -894.766     526.646
  O     -155.861    -898.876     529.128
  O     -155.179    -897.036     530.791
  H     -162.673    -897.346     526.683
  H     -154.292    -897.346     530.520
  H     -160.993    -892.236     522.614
  H     -157.562    -895.436     527.005
  H     -161.045    -894.516     528.056
  H     -160.346    -897.246     526.785
  H     -163.218    -892.096     523.325
  H     -161.178    -898.366     528.731
  H     -163.686    -892.816     524.854
  H     -160.205    -896.456     530.586
  H     -159.015    -898.496     530.426
  H     -158.651    -898.286     528.686
  P     -163.004    -897.646     530.605
  C     -164.706    -899.016     529.263
  O     -163.475    -899.036     529.997
  O     -164.006    -896.906     531.454
  O     -161.712    -898.056     531.505
  H     -161.984    -898.146     532.424
  H     -164.922    -900.000     528.903
  H     -164.616    -898.345     528.435
  H     -165.498    -898.688     529.904

 6  7  8  9  10  11  12  13  14  15  26  29  33  34 0
 6-311+G(2d,p)
 ****
 36  38  39  40  41 0
 6-311+G(2d,p)
 ****
 1  2  3  4  5  16  17  18  19  20  21  22  23  24  25 0
 3-21G
 ****
 27  28  30  31  32  35  37  42  43  44  45  46  47 0
 3-21G
 ****
 48  49 0
 3-21G
 ****


