%nproc=1
%NoSave
%Mem=1900MB
#P OB98/GEN NMR

erre ene a

0 1
  C     -513.980     562.002     191.931
  O     -513.050     562.987     191.507
  H     -514.651     562.448     192.668
  H     -513.464     561.153     192.394
  H     -514.567     561.654     191.082
  P     -511.783     562.506     190.643
  C     -513.126     562.705     188.442
  O     -512.403     561.839     189.311
  C     -512.289     563.089     187.220
  O     -511.843     561.909     186.519
  C     -513.049     563.903     186.180
  O     -513.422     565.190     186.598
  C     -512.159     563.739     184.955
  O     -511.066     564.655     184.953
  C     -511.640     562.281     185.134
  N     -512.288     561.349     184.218
  C     -512.313     561.727     182.886
  O     -511.849     562.796     182.464
  N     -512.919     560.849     182.031
  C     -513.529     559.694     182.376
  O     -514.078     558.947     181.561
  C     -513.502     559.356     183.809
  C     -512.887     560.183     184.658
  O     -510.795     561.633     191.363
  O     -511.156     563.872     190.098
  H     -511.439     565.548     185.070
  H     -510.236     563.734     189.754
  H     -512.936     561.109     181.054
  H     -513.990     558.437     184.127
  H     -512.859     559.965     185.714
  H     -510.560     562.244     184.962
  H     -512.716     563.898     184.026
  H     -513.990     563.370     185.952
  H     -511.405     563.625     187.571
  H     -513.380     563.613     189.013
  H     -514.055     562.209     188.127
  P     -514.701     565.960     186.042
  C     -516.294     564.467     187.496
  O     -515.991     565.010     186.214
  O     -514.541     566.696     184.748
  O     -514.951     567.061     187.204
  H     -515.291     567.863     186.768
  H     -517.176     563.865     187.429
  H     -516.458     565.264     188.191
  H     -515.476     563.864     187.831

 6  7  8  9  10  11  12  13  14  15  16  26  31  32  33  34  35 0
 6-311+G(2d,p)
 ****
 36  37 0
 6-311+G(2d,p)
 ****
 1  2  3  4  5  17  18  19  20  21  22  23  24  25 0
 3-21G
 ****
 27  28  29  30  38  39  40  41  42  43  44  45 0
 3-21G
 ****


