%nproc=1
%NoSave
%Mem=1900MB
#P OB98/GEN NMR

erre ene a

0 1
  C     -254.580     341.165    -144.465
  O     -254.096     341.525    -143.186
  H     -255.250     340.307    -144.360
  H     -253.747     340.883    -145.116
  H     -255.135     341.996    -144.912
  P     -253.121     342.800    -143.115
  C     -254.729     344.338    -141.764
  O     -254.073     344.088    -143.004
  C     -254.891     345.843    -141.561
  O     -255.740     346.382    -142.602
  C     -255.561     346.228    -140.247
  O     -254.658     346.177    -139.154
  C     -256.051     347.636    -140.564
  O     -255.014     348.608    -140.384
  C     -256.420     347.533    -142.051
  N     -260.260     348.593    -145.234
  C     -258.924     348.787    -145.333
  N     -257.963     348.455    -144.443
  C     -258.503     347.858    -143.365
  C     -259.843     347.605    -143.122
  C     -260.750     347.996    -144.123
  N     -262.109     347.835    -144.009
  N     -260.008     347.019    -141.881
  C     -258.791     346.914    -141.385
  N     -257.851     347.406    -142.249
  O     -252.538     342.885    -144.605
  O     -252.038     342.715    -142.093
  H     -254.289     348.360    -140.993
  H     -251.682     342.422    -144.648
  H     -258.584     349.270    -146.243
  H     -258.541     346.502    -140.415
  H     -256.088     348.407    -142.622
  H     -256.881     347.924    -139.917
  H     -256.431     345.582    -140.060
  H     -253.902     346.317    -141.647
  H     -254.126     343.924    -140.947
  H     -255.704     343.843    -141.777
  H     -262.702     348.157    -144.756
  H     -262.495     347.486    -143.134
  P     -255.214     345.716    -137.724
  C     -254.378     343.313    -138.274
  O     -255.431     344.125    -137.777
  O     -256.702     346.306    -137.701
  O     -254.402     346.192    -136.561
  H     -256.734     347.129    -137.182
  H     -254.676     342.286    -138.245
  H     -253.506     343.449    -137.669
  H     -254.158     343.592    -139.283

 6  7  8  9  10  11  12  13  14  15  25  28  32  33  34  35 0
 6-311+G(2d,p)
 ****
 36  37  40 0
 6-311+G(2d,p)
 ****
 1  2  3  4  5  16  17  18  19  20  21  22  23  24 0
 3-21G
 ****
 26  27  29  30  31  38  39 41  42  43  44  45  46  47  48 0
 3-21G
 ****


