%nproc=1
%NoSave
%Mem=1900MB
#P OB98/GEN NMR

erre ene a

0 1
  C     -868.497     430.659     672.259
  O     -869.166     429.782     671.386
  H     -867.446     430.359     672.338
  H     -868.950     430.592     673.256
  H     -868.542     431.690     671.901
  P     -870.589     430.248     670.815
  C     -869.784     430.785     668.402
  O     -870.574     429.944     669.236
  C     -869.391     430.039     667.121
  O     -868.341     429.070     667.454
  C     -870.547     429.259     666.454
  O     -870.389     429.344     665.039
  C     -870.271     427.836     666.885
  O     -870.861     426.885     666.000
  C     -868.744     427.815     666.881
  N     -865.431     424.047     666.673
  C     -865.597     425.133     665.848
  N     -864.811     425.209     664.755
  N     -866.483     426.077     666.074
  C     -867.198     425.891     667.204
  C     -867.125     424.855     668.098
  C     -866.155     423.811     667.848
  O     -865.965     422.816     668.520
  N     -868.068     425.005     669.098
  C     -868.720     426.112     668.785
  N     -868.232     426.690     667.647
  O     -870.487     431.850     670.892
  O     -871.779     429.731     671.552
  H     -871.820     427.055     665.952
  H     -870.885     432.166     671.723
  H     -864.751     423.335     666.459
  H     -869.546     426.529     669.336
  H     -868.327     427.750     665.878
  H     -870.669     427.652     667.893
  H     -864.089     424.541     664.532
  H     -871.534     429.614     666.737
  H     -864.899     426.022     664.161
  H     -868.951     430.762     666.417
  H     -868.882     431.072     668.946
  H     -870.354     431.684     668.168
  P     -871.678     429.706     664.153
  C     -871.550     432.300     663.992
  O     -871.388     431.053     663.339
  O     -872.745     430.180     665.256
  O     -872.202     428.566     663.346
  H     -873.651     429.911     664.982
  H     -871.318     433.092     663.311
  H     -870.892     432.349     664.835
  H     -872.562     432.400     664.323

 6  7  8  9  10  11  12  13  14  15  26  29  33  34 0
 6-311+G(2d,p)
 ****
 36  38  39  40  41 0
 6-311+G(2d,p)
 ****
 1  2  3  4  5  16  17  18  19  20  21  22  23  24  25 0
 3-21G
 ****
 27  28  30  31  32  35  37  42  43  44  45  46  47 0
 3-21G
 ****
 48  49 0
 3-21G
 ****


