%nproc=1
%NoSave
%Mem=1900MB
#P OB98/GEN NMR

erre ene a

0 1
  C     -268.596    -428.849    -152.629
  O     -268.966    -429.244    -151.323
  H     -268.419    -427.771    -152.660
  H     -267.672    -429.364    -152.905
  H     -269.379    -429.120    -153.343
  P     -270.287    -428.569    -150.711
  C     -271.945    -430.503    -151.245
  O     -271.504    -429.188    -151.556
  C     -273.074    -430.892    -152.193
  O     -274.234    -430.064    -151.952
  C     -272.731    -430.706    -153.666
  O     -271.987    -431.789    -154.194
  C     -274.121    -430.642    -154.275
  O     -274.677    -431.967    -154.356
  C     -274.878    -429.811    -153.229
  N     -276.946    -426.018    -155.977
  C     -277.233    -427.335    -155.898
  N     -276.651    -428.274    -155.126
  C     -275.682    -427.733    -154.371
  C     -275.279    -426.408    -154.339
  C     -275.956    -425.524    -155.195
  N     -275.644    -424.188    -155.303
  N     -274.235    -426.238    -153.451
  C     -274.026    -427.438    -152.945
  N     -274.852    -428.381    -153.495
  O     -270.219    -427.058    -151.233
  O     -270.447    -428.670    -149.231
  H     -274.215    -432.425    -155.083
  H     -270.851    -426.499    -150.741
  H     -278.038    -427.679    -156.543
  H     -273.283    -427.676    -152.194
  H     -275.930    -430.103    -153.137
  H     -274.123    -430.231    -155.287
  H     -272.222    -429.751    -153.843
  H     -273.356    -431.931    -151.983
  H     -272.308    -430.523    -150.212
  H     -276.081    -423.671    -156.049
  H     -274.817    -423.844    -154.840
  H     -271.109    -431.200    -151.347
  P     -270.658    -431.439    -155.029
  C     -268.905    -432.413    -153.377
  O     -269.485    -431.247    -153.950
  O     -270.938    -429.952    -155.539
  O     -270.365    -432.380    -156.151
  H     -270.517    -429.795    -156.406
  H     -268.144    -432.128    -152.682
  H     -268.475    -433.014    -154.150
  H     -269.661    -432.974    -152.868

 6  7  8  9  10  11  12  13  14  15  25  28  32  33  34  35 0
 6-311+G(2d,p)
 ****
 36  39  40 0
 6-311+G(2d,p)
 ****
 1  2  3  4  5  16  17  18  19  20  21  22  23  24 0
 3-21G
 ****
 26  27  29  30  31  37  38  41  42  43  44  45  46  47 0
 3-21G
 ****
 48 0
 3-21G
 ****


