%nproc=1
%NoSave
%Mem=1900MB
#P OB98/GEN NMR

erre ene a

0 1
  C      169.631     379.231    -745.285
  O      170.478     378.279    -744.662
  H      168.743     378.739    -745.691
  H      169.312     379.963    -744.530
  H      170.169     379.756    -746.082
  P      171.078     377.135    -745.609
  C      169.206     375.339    -745.789
  O      170.401     375.752    -745.131
  C      168.734     374.003    -745.221
  O      169.750     373.000    -745.413
  C      168.447     374.011    -743.722
  O      167.177     374.566    -743.429
  C      168.491     372.523    -743.414
  O      167.244     371.916    -743.809
  C      169.630     372.039    -744.321
  N      172.829     368.905    -741.825
  C      171.646     368.690    -742.462
  N      170.867     369.565    -743.117
  C      171.423     370.787    -743.105
  C      172.622     371.170    -742.523
  C      173.334     370.164    -741.849
  N      174.508     370.423    -741.155
  N      172.848     372.519    -742.711
  C      171.791     372.948    -743.371
  N      170.908     371.942    -743.641
  O      172.597     377.008    -745.101
  O      171.007     377.416    -747.070
  H      166.601     372.114    -743.101
  H      173.177     377.535    -745.680
  H      171.288     367.655    -742.427
  H      171.627     373.979    -743.676
  H      169.415     371.059    -744.774
  H      168.635     372.309    -742.349
  H      169.246     374.514    -743.149
  H      167.847     373.685    -745.785
  H      169.402     375.229    -746.864
  H      174.662     369.786    -740.374
  H      174.690     371.405    -740.983
  H      168.435     376.109    -745.640
  P      167.122     375.914    -742.559
  C      165.126     375.038    -741.171
  O      165.619     376.064    -742.024
  O      167.264     377.055    -743.662
  O      168.201     376.041    -741.512
  H      168.017     377.647    -743.451
  H      164.118     375.262    -740.890
  H      165.736     374.979    -740.294
  H      165.153     374.101    -741.687

 6  7  8  9  10  11  12  13  14  15  25  28  32  33  34  35 0
 6-311+G(2d,p)
 ****
 36  39  40 0
 6-311+G(2d,p)
 ****
 1  2  3  4  5  16  17  18  19  20  21  22  23  24 0
 3-21G
 ****
 26  27  29  30  31  37  38  41  42  43  44  45  46  47  48 0
 3-21G
 ****


