%nproc=1
%NoSave
%Mem=1900MB
#P OB98/GEN NMR

erre ene a

0 1
  C     -416.462    -563.721     -14.037
  O     -415.936    -562.624     -14.811
  P     -415.862    -562.761     -16.407
  C     -413.287    -563.021     -16.732
  O     -414.447    -562.236     -16.954
  C     -412.053    -562.404     -17.405
  O     -412.145    -562.545     -18.852
  C     -411.855    -560.904     -17.115
  O     -410.440    -560.659     -17.100
  C     -412.483    -560.250     -18.329
  O     -412.052    -558.910     -18.531
  C     -412.040    -561.222     -19.425
  N     -412.813    -561.131     -20.663
  C     -412.299    -560.359     -21.699
  O     -411.262    -559.696     -21.619
  N     -413.037    -560.337     -22.855
  C     -414.240    -560.965     -23.054
  O     -414.869    -560.876     -24.102
  C     -414.746    -561.741     -21.912
  C     -414.020    -561.784     -20.791
  O     -416.859    -561.595     -16.886
  O     -416.307    -564.079     -16.960
  H     -412.424    -558.612     -19.380
  H     -417.450    -561.941     -17.584
  H     -412.670    -559.787     -23.617
  H     -415.692    -562.256     -22.040
  H     -414.371    -562.369     -19.951
  H     -410.979    -561.062     -19.649
  H     -413.570    -560.237     -18.211
  H     -412.306    -560.586     -16.169
  H     -411.170    -562.970     -17.090
  H     -413.446    -564.024     -17.135
  H     -413.118    -563.114     -15.648
  P     -409.690    -560.613     -15.671
  C     -407.724    -559.034     -16.376
  O     -408.141    -560.322     -15.967
  O     -409.705    -562.178     -15.296
  O     -410.357    -559.759     -14.648
  H     -409.449    -562.745     -16.045
  H     -408.248    -558.252     -15.825
  H     -407.905    -558.911     -17.441
  H     -406.654    -558.942     -16.186
  H     -416.441    -563.467     -12.998
  H     -415.865    -564.593     -14.203
  H     -417.471    -563.917     -14.336

 3  4  5  6  7  8  9  10  11  12  13  23  28  29  30  31  32 0
 6-311+G(2d,p)
 ****
 33  34 0
 6-311+G(2d,p)
 ****
 1  2  14  15  16  17  18  19  20  21  22  24  25  26 0
 3-21G
 ****
 27  35  36  37  38  39  40  41  42  43  44  45 0
 3-21G
 ****


