%nproc=1
%NoSave
%Mem=1900MB
#P OB98/GEN NMR

erre ene a

0 1
  C      114.459      17.522    -158.022
  O      113.860      17.291    -156.736
  P      113.474      15.789    -156.310
  C      111.232      15.596    -154.977
  O      112.630      15.842    -154.948
  C      110.649      15.707    -153.566
  O      111.463      14.975    -152.621
  C      110.586      17.127    -153.023
  O      109.511      17.862    -153.580
  C      110.433      16.869    -151.526
  O      109.061      16.606    -151.187
  C      111.296      15.606    -151.332
  N      112.584      15.895    -150.706
  C      112.627      15.823    -149.317
  O      111.638      15.594    -148.625
  N      113.848      16.064    -148.748
  C      114.986      16.426    -149.410
  O      116.047      16.647    -148.837
  C      114.857      16.563    -150.867
  C      113.681      16.302    -151.439
  O      114.886      15.216    -155.802
  O      112.916      14.930    -157.396
  H      108.768      15.874    -151.765
  H      114.910      14.250    -155.931
  H      113.908      15.988    -147.744
  H      115.733      16.872    -151.428
  H      113.570      16.397    -152.514
  H      110.761      14.878    -150.708
  H      110.753      17.723    -150.921
  H      111.540      17.636    -153.201
  H      109.647      15.253    -153.573
  H      111.051      14.587    -155.361
  H      110.758      16.316    -155.649
  P      109.897      19.180    -154.415
  C      108.505      21.311    -153.823
  O      108.556      20.056    -154.462
  O      110.048      18.572    -155.889
  O      111.117      19.868    -153.894
  H      109.433      17.834    -156.046
  H      109.474      21.818    -153.851
  H      108.198      21.177    -152.782
  H      107.768      21.938    -154.332
  H      114.650      18.568    -158.144
  H      113.793      17.190    -158.791
  H      115.380      16.981    -158.089

 3  4  5  6  7  8  9  10  11  12  13  23  28  29  30  31  32 0
 6-311+G(2d,p)
 ****
 33  34 0
 6-311+G(2d,p)
 ****
 1  2  14  15  16  17  18  19  20  21  22  24  25  26 0
 3-21G
 ****
 27  35  36  37  38  39  40  41  42  43  44  45 0
 3-21G
 ****


