%nproc=1
%NoSave
%Mem=1900MB
#P OB98/GEN NMR

erre ene a

0 1
  C     -222.491     -69.283     112.119
  O     -222.872     -67.994     112.569
  P     -224.352     -67.833     113.173
  C     -226.008     -66.525     111.650
  O     -225.356     -67.757     111.927
  C     -225.025     -65.541     111.020
  O     -224.306     -66.176     109.945
  C     -225.670     -64.307     110.404
  O     -226.071     -63.384     111.404
  C     -224.539     -63.820     109.505
  O     -223.557     -63.118     110.283
  C     -223.954     -65.144     108.984
  N     -223.844     -64.075     103.979
  C     -223.239     -63.494     105.038
  N     -223.336     -63.821     106.343
  C     -224.151     -64.874     106.509
  C     -224.852     -65.554     105.529
  C     -224.673     -65.120     104.207
  N     -225.296     -65.712     103.130
  N     -225.609     -66.568     106.081
  C     -225.359     -66.507     107.372
  N     -224.473     -65.510     107.678
  O     -224.352     -66.339     113.740
  O     -224.713     -68.834     114.226
  H     -222.950     -62.678     109.654
  H     -224.903     -66.272     114.545
  H     -222.590     -62.652     104.807
  H     -225.788     -67.161     108.118
  H     -222.861     -65.120     108.910
  H     -224.879     -63.142     108.715
  H     -226.538     -64.592     109.796
  H     -224.300     -65.246     111.792
  H     -226.391     -66.095     112.581
  H     -225.229     -65.246     102.238
  H     -226.019     -66.396     103.317
  H     -226.854     -66.713     110.982
  P     -227.235     -62.346     111.023
  C     -226.516     -59.886     111.194
  O     -226.439     -61.079     110.434
  O     -227.694     -61.832     112.464
  O     -228.310     -62.900     110.154
  H     -226.937     -61.572     113.019
  H     -225.894     -59.127     110.713
  H     -226.148     -60.058     112.209
  H     -227.548     -59.527     111.225
  H     -221.489     -69.248     111.744
  H     -223.153     -69.599     111.340
  H     -222.543     -69.975     112.933

 3  4  5  6  7  8  9  10  11  12  22  25  29  30  31  32 0
 6-311+G(2d,p)
 ****
 33  36  37 0
 6-311+G(2d,p)
 ****
 1  2  13  14  15  16  17  18  19  20  21  23  24  26 0
 3-21G
 ****
 27  28  34  35  38  39  40  41  42  43  44  45  46  47  48 0
 3-21G
 ****


