%nproc=1
%NoSave
%Mem=1900MB
#P OB98/GEN NMR

erre ene a

0 1
  C      586.415    -423.589      15.482
  O      586.198    -422.288      15.995
  H      587.129    -423.522      14.655
  H      585.481    -424.012      15.106
  H      586.837    -424.233      16.255
  P      585.150    -422.165      17.201
  C      586.883    -422.747      19.034
  O      586.044    -421.751      18.469
  C      587.925    -422.118      19.953
  O      588.905    -421.411      19.182
  C      587.354    -421.113      20.948
  O      586.836    -421.772      22.088
  C      588.603    -420.308      21.290
  O      589.375    -421.021      22.275
  C      589.358    -420.268      19.951
  N      591.670    -416.252      17.745
  C      592.127    -417.184      18.608
  N      591.442    -418.188      19.199
  C      590.159    -418.186      18.799
  C      589.551    -417.301      17.931
  C      590.369    -416.294      17.379
  N      589.896    -415.348      16.498
  N      588.216    -417.605      17.763
  C      588.039    -418.697      18.481
  N      589.171    -419.068      19.159
  O      584.235    -423.327      17.390
  O      584.418    -420.787      16.832
  H      588.851    -421.016      23.099
  H      585.067    -420.135      16.507
  H      593.178    -417.110      18.864
  H      587.115    -419.265      18.527
  H      590.438    -420.377      20.096
  H      588.363    -419.331      21.716
  H      586.619    -420.449      20.472
  H      588.442    -422.926      20.481
  H      587.387    -423.315      18.239
  H      590.499    -414.558      16.309
  H      588.905    -415.303      16.334
  H      586.245    -423.441      19.595
  P      585.987    -420.981      23.195
  C      583.711    -421.769      22.284
  O      584.634    -421.833      23.362
  O      585.807    -419.528      22.911
  O      586.764    -421.262      24.565
  H      586.485    -420.620      25.243
  H      582.857    -422.372      22.510
  H      584.178    -422.132      21.392
  H      583.403    -420.755      22.138

 6  7  8  9  10  11  12  13  14  15  25  28  32  33  34  35 0
 6-311+G(2d,p)
 ****
 36  39  40 0
 6-311+G(2d,p)
 ****
 1  2  3  4  5  16  17  18  19  20  21  22  23  24 0
 3-21G
 ****
 26  27  29  30  31  37  38  41  42  43  44  45  46  47 0
 3-21G
 ****
 48 0
 3-21G
 ****


