%nproc=1
%NoSave
%Mem=1900MB
#P OB98/GEN NMR

erre ene a

0 1
  C      -21.703     -41.336     206.582
  O      -23.047     -41.494     206.988
  H      -21.161     -42.260     206.804
  H      -21.235     -40.518     207.136
  H      -21.641     -41.144     205.508
  P      -24.098     -40.330     206.655
  C      -25.032     -39.313     204.478
  O      -23.950     -40.004     205.091
  C      -24.586     -38.729     203.139
  O      -23.668     -37.634     203.350
  C      -23.847     -39.725     202.249
  O      -24.752     -40.635     201.654
  C      -23.156     -38.773     201.285
  O      -24.064     -38.311     200.273
  C      -22.758     -37.613     202.227
  N      -21.366     -37.696     202.675
  C      -20.405     -37.231     201.782
  O      -20.680     -36.775     200.674
  N      -19.103     -37.350     202.192
  C      -18.677     -37.960     203.340
  O      -17.505     -38.238     203.561
  C      -19.739     -38.361     204.277
  C      -21.013     -38.228     203.899
  O      -24.054     -39.141     207.556
  O      -25.518     -41.072     206.730
  H      -25.941     -40.869     207.588
  H      -24.895     -38.077     200.732
  H      -18.395     -37.060     201.530
  H      -19.443     -38.791     205.227
  H      -21.811     -38.548     204.563
  H      -22.898     -36.647     201.724
  H      -22.315     -39.243     200.770
  H      -23.084     -40.257     202.830
  H      -25.474     -38.332     202.625
  H      -25.348     -38.499     205.141
  H      -25.870     -40.005     204.341
  P      -24.273     -42.088     201.180
  C      -22.988     -43.991     202.311
  O      -23.125     -42.584     202.183
  O      -23.921     -42.196     199.732
  O      -25.507     -43.048     201.541
  H      -25.762     -43.550     200.741
  H      -22.199     -44.211     202.999
  H      -22.757     -44.415     201.356
  H      -23.905     -44.407     202.674

 6  7  8  9  10  11  12  13  14  15  16  27  31  32  33  34  35 0
 6-311+G(2d,p)
 ****
 36  37 0
 6-311+G(2d,p)
 ****
 1  2  3  4  5  17  18  19  20  21  22  23  24  25 0
 3-21G
 ****
 26  28  29  30  38  39  40  41  42  43  44  45 0
 3-21G
 ****


