%nproc=1
%NoSave
%Mem=1900MB
#P OB98/GEN NMR

erre ene a

0 1
  C     -894.960     411.266    -892.760
  O     -895.940     412.315    -892.760
  P     -896.080     413.155    -891.400
  C     -896.180     415.572    -892.400
  O     -895.430     414.612    -891.640
  C     -895.540     415.758    -893.770
  O     -895.500     414.507    -894.520
  C     -896.320     416.723    -894.660
  O     -896.070     418.073    -894.260
  C     -895.720     416.370    -896.030
  O     -894.440     416.979    -896.210
  C     -895.590     414.849    -895.910
  N     -896.790     411.302    -899.420
  C     -895.620     411.823    -899.030
  N     -895.380     412.749    -898.100
  C     -896.520     413.168    -897.520
  C     -897.810     412.748    -897.810
  C     -897.940     411.751    -898.820
  N     -899.140     411.256    -899.230
  N     -898.740     413.370    -897.020
  C     -898.010     414.225    -896.280
  N     -896.670     414.101    -896.550
  O     -895.050     412.441    -890.400
  O     -897.480     413.146    -890.850
  H     -894.100     416.694    -897.070
  H     -895.540     411.938    -889.730
  H     -894.740     411.411    -899.540
  H     -898.430     414.898    -895.550
  H     -894.650     414.473    -896.390
  H     -896.380     416.694    -896.860
  H     -897.380     416.504    -894.640
  H     -894.510     416.099    -893.640
  H     -896.210     416.524    -891.870
  H     -899.150     410.610    -900.000
  H     -900.000     411.632    -898.850
  H     -897.210     415.210    -892.490
  P     -896.730     418.555    -892.890
  C     -894.610     419.018    -891.490
  O     -895.660     418.109    -891.750
  O     -897.920     417.480    -892.690
  O     -897.150     419.976    -892.840
  H     -897.600     416.560    -892.850
  H     -893.970     418.594    -890.710
  H     -895.030     419.978    -891.170
  H     -894.020     419.145    -892.410
  H     -894.958     410.780    -893.713
  H     -895.199     410.555    -891.997
  H     -893.993     411.682    -892.569

 3  4  5  6  7  8  9  10  11  12  22  25  29  30  31  32 0
 6-311+G(2d,p)
 ****
 33  36  37 0
 6-311+G(2d,p)
 ****
 1  2  13  14  15  16  17  18  19  20  21  23  24  26 0
 3-21G
 ****
 27  28  34  35  38  39  40  41  42  43  44  45  46  47  48 0
 3-21G
 ****


