%nproc=1
%NoSave
%Mem=1900MB
#P OB98/GEN NMR

erre ene a

0 1
  C     -316.274    -350.335     221.009
  O     -316.410    -351.385     220.042
  P     -317.475    -352.576     220.181
  C     -317.615    -353.133     217.664
  O     -317.282    -353.607     218.963
  C     -316.376    -352.660     216.896
  O     -315.378    -353.726     216.848
  C     -316.656    -352.227     215.443
  O     -315.822    -351.090     215.187
  C     -316.193    -353.446     214.658
  O     -315.947    -353.185     213.290
  C     -314.953    -353.827     215.468
  N     -314.407    -355.149     215.197
  C     -313.117    -355.217     214.647
  O     -312.489    -354.205     214.352
  N     -312.569    -356.459     214.423
  C     -313.236    -357.535     214.710
  N     -312.624    -358.724     214.472
  C     -314.597    -357.506     215.267
  C     -315.111    -356.295     215.486
  O     -318.885    -352.106     220.338
  O     -317.015    -353.415     221.467
  H     -317.807    -353.746     221.933
  H     -316.806    -353.054     212.849
  H     -315.115    -358.422     215.503
  H     -316.103    -356.190     215.925
  H     -314.174    -353.071     215.319
  H     -316.973    -354.214     214.713
  H     -317.699    -351.948     215.262
  H     -315.924    -351.836     217.457
  H     -311.686    -358.700     214.097
  H     -318.305    -352.290     217.770
  H     -313.049    -359.620     214.668
  H     -318.126    -353.927     217.112
  P     -316.483    -349.634     215.081
  C     -314.839    -348.182     216.485
  O     -315.302    -348.555     215.203
  O     -317.205    -349.494     216.504
  O     -317.470    -349.433     213.978
  H     -317.950    -348.866     216.426
  H     -313.743    -348.164     216.470
  H     -315.159    -348.877     217.266
  H     -315.208    -347.184     216.724
  H     -315.502    -349.662     220.699
  H     -316.020    -350.756     221.959
  H     -317.199    -349.803     221.090

 3  4  5  6  7  8  9  10  11  12  13  24  27  28  29  30  32 0
 6-311+G(2d,p)
 ****
 34  35 0
 6-311+G(2d,p)
 ****
 1  2  14  15  16  17  18  19  20  21  22  23  25  26 0
 3-21G
 ****
 31  33  36  37  38  39  40  41  42  43  44  45  46 0
 3-21G
 ****


