%nproc=1
%NoSave
%Mem=1900MB
#P OB98/GEN NMR

erre ene a

0 1
  C      -52.623      57.834      74.914
  O      -52.153      58.325      73.674
  H      -53.593      58.292      75.126
  H      -51.926      58.093      75.716
  H      -52.748      56.749      74.862
  P      -50.716      57.799      73.193
  C      -48.318      58.138      74.073
  O      -49.673      58.567      74.144
  C      -47.454      58.936      75.051
  O      -47.415      60.318      74.610
  C      -47.984      58.918      76.486
  O      -46.884      58.854      77.393
  C      -48.680      60.262      76.624
  O      -48.743      60.706      77.977
  C      -47.833      61.146      75.709
  N      -48.097      66.241      75.719
  C      -47.162      65.384      76.180
  N      -47.164      64.034      76.121
  C      -48.251      63.589      75.468
  C      -49.290      64.340      74.946
  C      -49.189      65.735      75.096
  N      -50.149      66.614      74.653
  N      -50.249      63.517      74.388
  C      -49.789      62.291      74.559
  N      -48.593      62.284      75.222
  O      -50.444      57.905      71.729
  O      -50.699      56.314      73.788
  H      -49.329      60.099      78.475
  H      -51.037      56.292      74.702
  H      -46.302      65.838      76.666
  H      -50.289      61.383      74.236
  H      -46.941      61.539      76.211
  H      -49.708      60.185      76.247
  H      -48.665      58.088      76.671
  H      -46.427      58.558      75.000
  H      -47.934      58.267      73.056
  H      -49.990      67.600      74.789
  H      -50.961      66.256      74.171
  H      -48.288      57.073      74.324
  P      -46.846      57.661      78.462
  C      -47.997      57.064      80.696
  O      -47.751      58.075      79.723
  O      -45.495      57.123      78.791
  O      -47.747      56.537      77.756
  H      -47.363      55.659      77.944
  H      -48.607      57.463      81.479
  H      -47.067      56.729      81.105
  H      -48.502      56.241      80.235

 6  7  8  9  10  11  12  13  14  15  25  28  32  33  34  35 0
 6-311+G(2d,p)
 ****
 36  39  40 0
 6-311+G(2d,p)
 ****
 1  2  3  4  5  16  17  18  19  20  21  22  23  24 0
 3-21G
 ****
 26  27  29  30  31  37  38  41  42  43  44  45  46  47 0
 3-21G
 ****
 48 0
 3-21G
 ****


