%nproc=1
%NoSave
%Mem=1900MB
#P OB98/GEN NMR

erre ene a

0 1
  C     -218.165    -142.293     714.379
  O     -218.996    -141.182     714.642
  H     -218.770    -143.204     714.397
  H     -217.382    -142.383     715.142
  H     -217.702    -142.196     713.395
  P     -218.315    -139.746     714.826
  C     -220.559    -138.602     715.446
  O     -219.242    -138.956     715.868
  C     -221.366    -138.069     716.623
  O     -221.665    -139.130     717.556
  C     -220.623    -137.002     717.426
  O     -220.619    -135.768     716.744
  C     -221.392    -137.037     718.732
  O     -222.617    -136.297     718.625
  C     -221.685    -138.558     718.891
  N     -220.739    -139.222     719.758
  C     -220.650    -138.723     721.069
  O     -221.350    -137.784     721.420
  N     -219.744    -139.303     721.927
  C     -219.004    -140.293     721.530
  N     -218.127    -140.813     722.430
  C     -219.070    -140.867     720.174
  C     -219.936    -140.276     719.349
  O     -218.003    -138.977     713.574
  O     -216.997    -140.063     715.687
  H     -223.035    -136.334     719.514
  H     -216.240    -140.264     715.091
  H     -218.443    -141.689     719.888
  H     -220.059    -140.635     718.333
  H     -222.695    -138.713     719.286
  H     -220.814    -136.615     719.560
  H     -219.597    -137.342     717.630
  H     -222.319    -137.675     716.243
  H     -218.103    -140.388     723.366
  H     -221.027    -139.516     715.049
  H     -217.569    -141.645     722.272
  H     -220.526    -137.856     714.640
  P     -219.231    -135.077     716.303
  C     -220.432    -132.812     716.626
  O     -219.286    -133.592     716.933
  O     -218.921    -135.148     714.849
  O     -218.157    -135.825     717.231
  H     -217.978    -136.741     716.912
  H     -220.350    -131.856     717.099
  H     -221.309    -133.311     716.981
  H     -220.501    -132.681     715.566

 6  7  8  9  10  11  12  13  14  15  16  26  30  31  32  33  35 0
 6-311+G(2d,p)
 ****
 37  38 0
 6-311+G(2d,p)
 ****
 1  2  3  4  5  17  18  19  20  21  22  23  24  25 0
 3-21G
 ****
 27  28  29  34  36  39  40  41  42  43  44  45  46 0
 3-21G
 ****


