%nproc=1
%NoSave
%Mem=1900MB
#P OB98/GEN NMR

erre ene a

0 1
  C     -417.508    -600.550     468.105
  O     -417.729    -601.355     466.964
  P     -417.963    -600.659     465.538
  C     -420.421    -601.526     465.529
  O     -419.195    -601.431     464.842
  C     -420.808    -602.996     465.785
  O     -421.263    -603.559     464.530
  C     -419.653    -603.884     466.245
  O     -420.194    -605.068     466.839
  C     -418.979    -604.236     464.933
  O     -418.172    -605.396     465.033
  C     -420.188    -604.346     463.960
  N     -419.852    -603.852     462.621
  C     -419.085    -604.695     461.810
  O     -418.763    -605.832     462.147
  N     -418.641    -604.143     460.637
  C     -418.833    -602.856     460.236
  O     -418.179    -602.304     459.357
  C     -419.840    -602.096     461.003
  C     -420.273    -602.605     462.158
  O     -416.693    -601.148     464.699
  O     -418.084    -599.183     465.564
  H     -417.621    -605.433     464.202
  H     -416.000    -600.464     464.710
  H     -417.969    -604.714     460.116
  H     -420.132    -601.123     460.636
  H     -420.976    -602.047     462.771
  H     -420.531    -605.382     463.862
  H     -418.334    -603.410     464.625
  H     -418.962    -603.399     466.941
  H     -421.635    -603.035     466.498
  H     -421.203    -601.014     464.952
  H     -420.362    -600.998     466.491
  P     -419.377    -605.777     468.024
  C     -417.767    -607.069     466.513
  O     -418.831    -607.157     467.432
  O     -420.075    -605.854     469.340
  O     -418.053    -604.876     468.114
  H     -417.611    -605.016     468.969
  H     -417.161    -607.982     466.580
  H     -417.120    -606.203     466.710
  H     -418.166    -606.996     465.489
  H     -417.372    -601.176     468.962
  H     -418.352    -599.911     468.260
  H     -416.632    -599.954     467.957

 3  4  5  6  7  8  9  10  11  12  13  23  28  29  30  31  32 0
 6-311+G(2d,p)
 ****
 33  34 0
 6-311+G(2d,p)
 ****
 1  2  14  15  16  17  18  19  20  21  22  24  25  26  27 0
 3-21G
 ****
 35  36  37  38  39  40  41  42  43  44  45 0
 3-21G
 ****


