%nproc=1
%NoSave
%Mem=1900MB
#P OB98/GEN NMR

erre ene a

0 1
  C      -87.090    -626.381     256.278
  O      -86.422    -625.257     255.738
  P      -84.851    -625.303     255.408
  C      -84.703    -622.744     255.582
  O      -84.241    -623.982     256.090
  C      -84.844    -621.721     256.718
  O      -86.071    -622.003     257.427
  C      -83.744    -621.765     257.781
  O      -82.572    -621.016     257.444
  C      -84.450    -621.083     258.943
  O      -84.456    -619.651     258.747
  C      -85.873    -621.637     258.822
  N      -88.693    -623.575     262.623
  C      -88.750    -622.393     261.968
  N      -87.938    -621.938     260.983
  C      -87.049    -622.880     260.646
  C      -86.878    -624.127     261.211
  C      -87.755    -624.479     262.253
  N      -87.725    -625.700     262.896
  N      -85.829    -624.800     260.608
  C      -85.387    -623.971     259.687
  N      -86.094    -622.794     259.665
  O      -84.525    -625.497     253.962
  O      -84.292    -626.473     256.331
  H      -83.564    -619.333     258.984
  H      -83.411    -626.758     256.016
  H      -89.520    -621.702     262.300
  H      -84.564    -624.168     259.016
  H      -86.640    -620.886     259.070
  H      -83.959    -621.275     259.903
  H      -83.492    -622.794     258.060
  H      -84.926    -620.721     256.273
  H      -85.690    -622.903     255.119
  H      -88.468    -625.903     263.536
  H      -87.129    -626.422     262.508
  H      -84.022    -622.375     254.803
  P      -81.171    -621.807     257.482
  C      -79.960    -619.567     256.902
  O      -80.057    -620.686     257.749
  O      -80.927    -622.698     256.308
  O      -81.252    -622.600     258.887
  H      -81.231    -622.036     259.669
  H      -79.258    -618.840     257.343
  H      -80.927    -619.074     256.786
  H      -79.577    -619.861     255.927
  H      -88.124    -626.146     256.423
  H      -86.648    -626.642     257.217
  H      -87.004    -627.206     255.602

 3  4  5  6  7  8  9  10  11  12  22  25  29  30  31  32 0
 6-311+G(2d,p)
 ****
 33  36  37 0
 6-311+G(2d,p)
 ****
 1  2  13  14  15  16  17  18  19  20  21  23  24  26 0
 3-21G
 ****
 27  28  34  35  38  39  40  41  42  43  44  45  46  47  48 0
 3-21G
 ****


