%nproc=1
%NoSave
%Mem=1900MB
#P OB98/GEN NMR

erre ene a

0 1
  C      277.453     353.096     576.047
  O      276.260     353.831     575.870
  H      277.197     352.052     576.238
  H      278.006     353.483     576.906
  H      278.077     353.144     575.151
  P      276.354     355.353     575.374
  C      275.524     355.220     572.935
  O      276.651     355.310     573.799
  C      275.963     355.424     571.487
  O      274.838     355.257     570.597
  C      276.517     356.814     571.196
  O      277.834     356.950     571.697
  C      276.404     356.851     569.677
  O      277.491     356.141     569.067
  C      275.063     356.104     569.453
  N      273.934     357.012     569.237
  C      273.402     357.043     567.950
  O      273.867     356.392     567.016
  N      272.328     357.873     567.772
  C      271.798     358.715     568.709
  O      270.865     359.481     568.481
  C      272.420     358.660     570.041
  C      273.439     357.823     570.240
  O      277.267     356.239     576.159
  O      274.838     355.864     575.441
  H      277.361     356.205     568.099
  H      274.703     356.390     576.251
  H      271.939     357.922     566.844
  H      272.029     359.315     570.808
  H      273.915     357.769     571.216
  H      275.141     355.442     568.578
  H      276.424     357.864     569.278
  H      275.857     357.583     571.615
  H      276.704     354.651     571.241
  H      274.807     356.001     573.213
  H      275.055     354.242     573.064
  P      278.443     358.392     572.016
  C      277.400     358.573     574.346
  O      277.444     359.129     573.037
  O      278.819     359.206     570.820
  O      279.724     358.084     572.921
  H      280.545     358.214     572.399
  H      276.711     359.129     574.947
  H      278.374     358.619     574.786
  H      277.081     357.553     574.290

 6  7  8  9  10  11  12  13  14  15  16  26  31  32  33  34  35 0
 6-311+G(2d,p)
 ****
 36  37 0
 6-311+G(2d,p)
 ****
 1  2  3  4  5  17  18  19  20  21  22  23  24  25 0
 3-21G
 ****
 27  28  29  30  38  39  40  41  42  43  44  45 0
 3-21G
 ****


