%nproc=1
%NoSave
%Mem=1900MB
#P OB98/GEN NMR

erre ene a

0 1
  C      -99.232     281.277    -130.344
  O     -100.085     281.623    -131.433
  P     -101.646     281.830    -131.143
  C     -102.948     280.493    -132.936
  O     -102.431     280.508    -131.605
  C     -103.493     279.100    -133.288
  O     -104.752     278.897    -132.593
  C     -103.796     278.887    -134.780
  O     -102.755     278.399    -135.617
  C     -104.849     277.778    -134.706
  O     -104.209     276.499    -134.581
  C     -105.614     278.091    -133.425
  N     -110.715     277.664    -133.358
  C     -109.735     276.787    -133.056
  N     -108.401     276.981    -133.102
  C     -108.112     278.229    -133.494
  C     -109.010     279.234    -133.821
  C     -110.369     278.917    -133.748
  N     -111.376     279.807    -134.066
  N     -108.336     280.394    -134.181
  C     -107.060     280.076    -134.079
  N     -106.864     278.796    -133.660
  O     -102.237     283.121    -131.617
  O     -101.720     281.727    -129.539
  H     -104.915     275.826    -134.675
  H     -102.379     282.361    -129.211
  H     -110.060     275.799    -132.743
  H     -106.244     280.748    -134.315
  H     -105.864     277.186    -132.855
  H     -105.468     277.732    -135.611
  H     -104.235     279.783    -135.216
  H     -102.781     278.332    -132.939
  H     -102.154     280.767    -133.633
  H     -112.331     279.475    -134.026
  H     -111.134     280.720    -134.406
  H     -103.710     281.270    -132.997
  P     -101.977     279.370    -136.629
  C     -103.948     278.888    -138.289
  O     -103.064     279.834    -137.711
  O     -100.722     278.801    -137.217
  O     -101.763     280.683    -135.752
  H     -102.580     281.174    -135.542
  H     -104.741     279.422    -138.818
  H     -104.404     278.256    -137.516
  H     -103.400     278.269    -138.999
  H      -98.227     281.175    -130.697
  H      -99.556     280.351    -129.917
  H      -99.273     282.046    -129.601

 3  4  5  6  7  8  9  10  11  12  22  25  29  30  31  32 0
 6-311+G(2d,p)
 ****
 33  36  37 0
 6-311+G(2d,p)
 ****
 1  2  13  14  15  16  17  18  19  20  21  23  24  26 0
 3-21G
 ****
 27  28  34  35  38  39  40  41  42  43  44  45  46  47  48 0
 3-21G
 ****


