%nproc=1
%NoSave
%Mem=1900MB
#P OB98/GEN NMR

erre ene a

0 1
  C     -896.770     204.178    -889.430
  O     -897.840     203.688    -890.210
  H     -896.940     205.236    -889.220
  H     -895.830     204.073    -890.000
  H     -896.690     203.635    -888.480
  P     -898.010     202.104    -890.380
  C     -896.620     202.214    -892.550
  O     -896.790     201.594    -891.290
  C     -895.460     201.568    -893.320
  O     -895.880     200.244    -893.790
  C     -895.060     202.369    -894.560
  O     -893.680     202.214    -894.900
  C     -895.930     201.781    -895.650
  O     -895.410     201.994    -896.970
  C     -895.950     200.300    -895.240
  N     -897.860     196.693    -898.290
  C     -896.590     197.238    -898.290
  N     -895.720     196.783    -899.210
  N     -896.220     198.192    -897.460
  C     -897.210     198.608    -896.640
  C     -898.520     198.161    -896.580
  C     -898.900     197.080    -897.460
  O     -900.000     196.560    -897.530
  N     -899.260     198.849    -895.630
  C     -898.380     199.702    -895.120
  N     -897.140     199.582    -895.680
  O     -899.270     201.976    -891.390
  O     -898.260     201.326    -889.120
  H     -896.060     201.692    -897.600
  H     -899.680     201.095    -891.300
  H     -898.070     195.945    -898.940
  H     -898.620     200.436    -894.340
  H     -895.080     199.763    -895.640
  H     -896.910     202.257    -895.610
  H     -896.020     196.176    -900.000
  H     -895.270     203.432    -894.440
  H     -894.910     197.384    -899.410
  H     -894.610     201.400    -892.630
  H     -896.430     203.268    -892.370
  H     -897.530     202.153    -893.150
  P     -892.650     203.380    -894.520
  C     -892.210     204.180    -897.000
  O     -892.600     204.484    -895.700
  O     -891.210     202.658    -894.610
  O     -892.890     203.981    -893.160
  H     -890.790     202.622    -893.730
  H     -892.255     205.064    -897.602
  H     -892.867     203.439    -897.405
  H     -891.208     203.804    -896.993

 6  7  8  9  10  11  12  13  14  15  26  29  33  34 0
 6-311+G(2d,p)
 ****
 36  38  39  40  41 0
 6-311+G(2d,p)
 ****
 1  2  3  4  5  16  17  18  19  20  21  22  23  24  25 0
 3-21G
 ****
 27  28  30  31  32  35  37  42  43  44  45  46  47 0
 3-21G
 ****
 48  49 0
 3-21G
 ****


