%nproc=1
%NoSave
%Mem=1900MB
#P OB98/GEN NMR

erre ene a

0 1
  C     -255.810    -151.459     -18.123
  O     -255.732    -151.017     -16.781
  H     -256.859    -151.663     -18.360
  H     -255.237    -152.381     -18.248
  H     -255.440    -150.690     -18.808
  P     -254.324    -150.509     -16.212
  C     -252.055    -151.580     -15.595
  O     -253.402    -151.810     -15.987
  C     -251.404    -152.882     -15.115
  O     -252.053    -153.298     -13.879
  C     -251.524    -154.038     -16.111
  O     -250.322    -154.814     -16.078
  C     -252.679    -154.856     -15.571
  O     -252.607    -156.229     -15.964
  C     -252.545    -154.639     -14.065
  N     -255.986    -158.054     -12.632
  C     -254.760    -158.227     -13.237
  N     -254.398    -159.495     -13.523
  N     -253.958    -157.242     -13.543
  C     -254.433    -156.023     -13.179
  C     -255.630    -155.725     -12.571
  C     -256.521    -156.821     -12.264
  O     -257.631    -156.725     -11.740
  N     -255.763    -154.366     -12.385
  C     -254.649    -153.857     -12.872
  N     -253.815    -154.818     -13.380
  O     -254.413    -149.593     -15.030
  O     -253.629    -149.785     -17.457
  H     -253.500    -156.612     -15.823
  H     -253.658    -148.819     -17.361
  H     -256.571    -158.844     -12.433
  H     -254.403    -152.797     -12.892
  H     -251.834    -155.339     -13.605
  H     -253.628    -154.446     -15.947
  H     -254.960    -160.308     -13.297
  H     -251.700    -153.686     -17.133
  H     -253.489    -159.659     -13.943
  H     -250.357    -152.676     -14.871
  H     -252.050    -150.845     -14.783
  H     -251.498    -151.174     -16.447
  P     -249.665    -155.307     -17.455
  C     -250.055    -157.121     -19.237
  O     -250.539    -156.517     -18.046
  O     -248.195    -155.551     -17.413
  O     -250.016    -154.100     -18.461
  H     -249.278    -153.994     -19.093
  H     -250.716    -157.909     -19.532
  H     -249.078    -157.522     -19.062
  H     -250.005    -156.387     -20.014

 6  7  8  9  10  11  12  13  14  15  26  29  33  34 0
 6-311+G(2d,p)
 ****
 36  38  39  40  41 0
 6-311+G(2d,p)
 ****
 1  2  3  4  5  16  17  18  19  20  21  22  23  24  25 0
 3-21G
 ****
 27  28  30  31  32  35  37  42  43  44  45  46  47 0
 3-21G
 ****
 48  49 0
 3-21G
 ****


