%nproc=1
%NoSave
%Mem=1900MB
#P OB98/GEN NMR

erre ene a

0 1
  C      -37.664    -468.287    -180.431
  O      -37.342    -467.794    -181.717
  H      -37.296    -469.313    -180.350
  H      -38.746    -468.290    -180.282
  H      -37.182    -467.682    -179.659
  P      -37.812    -466.313    -182.106
  C      -40.000    -465.261    -182.988
  O      -39.381    -466.414    -182.431
  C      -41.243    -465.660    -183.782
  O      -40.866    -466.291    -185.021
  C      -42.160    -466.643    -183.060
  O      -42.997    -465.961    -182.138
  C      -42.936    -467.216    -184.234
  O      -43.932    -466.269    -184.664
  C      -41.836    -467.340    -185.305
  N      -42.026    -472.172    -186.848
  C      -42.995    -471.190    -186.894
  N      -44.196    -471.552    -187.394
  N      -42.809    -469.964    -186.478
  C      -41.585    -469.761    -185.935
  C      -40.550    -470.660    -185.815
  C      -40.745    -471.995    -186.343
  O      -39.905    -472.889    -186.342
  N      -39.491    -470.120    -185.128
  C      -39.867    -468.880    -184.878
  N      -41.138    -468.615    -185.341
  O      -37.015    -465.629    -183.175
  O      -37.776    -465.512    -180.721
  H      -43.473    -465.586    -185.187
  H      -36.917    -465.072    -180.592
  H      -42.229    -473.102    -187.175
  H      -39.265    -468.135    -184.373
  H      -42.223    -467.163    -186.314
  H      -43.455    -468.143    -183.990
  H      -44.445    -472.510    -187.592
  H      -41.592    -467.447    -182.581
  H      -44.934    -470.861    -187.383
  H      -41.783    -464.742    -184.043
  H      -39.268    -464.776    -183.642
  H      -40.281    -464.559    -182.196
  P      -43.251    -466.529    -180.655
  C      -44.988    -468.189    -179.691
  O      -44.283    -467.744    -180.838
  O      -43.664    -465.505    -179.653
  O      -41.895    -467.297    -180.290
  H      -41.204    -466.699    -179.917
  H      -45.635    -468.997    -179.961
  H      -45.570    -467.383    -179.295
  H      -44.291    -468.522    -178.951

 6  7  8  9  10  11  12  13  14  15  26  29  33  34 0
 6-311+G(2d,p)
 ****
 36  38  39  40  41 0
 6-311+G(2d,p)
 ****
 1  2  3  4  5  16  17  18  19  20  21  22  23  24  25 0
 3-21G
 ****
 27  28  30  31  32  35  37  42  43  44  45  46  47 0
 3-21G
 ****
 48  49 0
 3-21G
 ****


