%nproc=1
%NoSave
%Mem=1900MB
#P OB98/GEN NMR

erre ene a

0 1
  C      167.994     -91.127    -114.423
  O      168.835     -91.667    -113.421
  H      167.351     -91.922    -114.809
  H      168.596     -90.730    -115.247
  H      167.367     -90.336    -114.003
  P      169.904     -90.661    -112.771
  C      171.667     -91.276    -114.573
  O      170.909     -90.245    -113.954
  C      173.012     -90.739    -115.050
  O      172.831     -89.758    -116.094
  C      173.845     -90.070    -113.960
  O      174.572     -91.031    -113.213
  C      174.745     -89.164    -114.788
  O      175.847     -89.909    -115.353
  C      173.791     -88.684    -115.892
  N      174.363     -83.736    -115.070
  C      175.308     -84.721    -115.262
  N      176.606     -84.340    -115.198
  N      175.017     -85.977    -115.485
  C      173.686     -86.224    -115.464
  C      172.651     -85.334    -115.281
  C      172.989     -83.941    -115.091
  O      172.194     -83.008    -114.999
  N      171.434     -85.968    -115.348
  C      171.735     -87.238    -115.533
  N      173.091     -87.445    -115.606
  O      170.800     -91.613    -111.845
  O      169.325     -89.532    -111.984
  H      176.486     -89.284    -115.738
  H      171.031     -91.132    -111.029
  H      174.646     -82.783    -114.934
  H      171.016     -88.044    -115.632
  H      174.311     -88.535    -116.845
  H      175.188     -88.371    -114.182
  H      176.888     -83.482    -114.749
  H      173.214     -89.452    -113.306
  H      177.296     -85.079    -115.264
  H      173.565     -91.578    -115.491
  H      171.105     -91.663    -115.431
  H      171.824     -92.084    -113.853
  P      174.572     -90.909    -111.615
  C      176.699     -89.420    -111.704
  O      175.370     -89.572    -111.222
  O      175.560     -92.085    -111.166
  O      173.230     -91.065    -110.976
  H      175.050     -92.826    -110.797
  H      177.098     -88.488    -111.363
  H      176.694     -89.436    -112.774
  H      177.305     -90.222    -111.338

 6  7  8  9  10  11  12  13  14  15  26  29  33  34 0
 6-311+G(2d,p)
 ****
 36  38  39  40  41 0
 6-311+G(2d,p)
 ****
 1  2  3  4  5  16  17  18  19  20  21  22  23  24  25 0
 3-21G
 ****
 27  28  30  31  32  35  37  42  43  44  45  46  47 0
 3-21G
 ****
 48  49 0
 3-21G
 ****


