%nproc=1
%NoSave
%Mem=1900MB
#P OB98/GEN NMR

erre ene a

0 1
  C      458.566      38.001      -6.268
  O      459.110      37.756      -7.553
  P      458.313      38.335      -8.823
  C      459.239      36.366     -10.249
  O      458.098      37.097      -9.825
  C      458.814      35.032     -10.860
  O      458.203      34.187      -9.865
  C      457.780      35.156     -11.969
  O      458.364      35.503     -13.218
  C      457.225      33.743     -12.014
  O      458.117      32.886     -12.760
  C      457.222      33.348     -10.530
  N      453.701      31.193      -7.603
  C      454.993      30.788      -7.875
  N      455.379      29.611      -7.337
  N      455.832      31.472      -8.607
  C      455.306      32.626      -9.086
  C      454.040      33.138      -8.882
  C      453.118      32.363      -8.081
  O      451.944      32.640      -7.851
  N      453.875      34.333      -9.523
  C      455.035      34.561     -10.113
  N      455.921      33.527      -9.913
  O      459.406      39.228      -9.572
  O      457.084      39.112      -8.485
  H      459.025      33.126     -12.487
  H      458.972      39.836     -10.194
  H      453.091      30.628      -7.040
  H      455.272      35.433     -10.703
  H      457.526      32.307     -10.384
  H      456.248      33.682     -12.504
  H      454.760      29.005      -6.817
  H      456.977      35.851     -11.692
  H      456.300      29.257      -7.572
  H      459.714      34.521     -11.230
  H      459.889      36.185      -9.390
  H      459.796      36.960     -10.985
  P      457.352      35.874     -14.406
  C      459.353      35.528     -16.034
  O      458.000      35.239     -15.729
  O      457.573      37.448     -14.586
  O      455.926      35.529     -14.142
  H      456.774      37.869     -14.957
  H      459.701      34.821     -16.793
  H      459.984      35.429     -15.147
  H      459.433      36.548     -16.431
  H      459.197      37.561      -5.524
  H      457.588      37.571      -6.207
  H      458.502      39.056      -6.103

 3  4  5  6  7  8  9  10  11  12  23  26  30  31 0
 6-311+G(2d,p)
 ****
 33  35  36  37  38 0
 6-311+G(2d,p)
 ****
 1  2  13  14  15  16  17  18  19  20  21  22  24  25 0
 3-21G
 ****
 27  28  29  32  34  39  40  41  42  43  44  45  46  47  48  49 0
 3-21G
 ****


