%nproc=1
%NoSave
%Mem=1900MB
#P OB98/GEN NMR

erre ene a

0 1
  C       71.672     400.597     192.170
  O       71.018     399.558     191.445
  P       70.190     399.991     190.133
  C       67.943     400.127     191.442
  O       68.908     400.801     190.644
  C       66.917     401.119     191.988
  O       67.583     402.211     192.656
  C       66.044     401.775     190.923
  O       65.042     400.886     190.454
  C       65.515     402.977     191.691
  O       64.441     402.579     192.561
  C       66.746     403.391     192.523
  N       66.863     408.414     191.539
  C       65.925     407.638     192.142
  N       65.960     406.306     192.345
  C       67.105     405.778     191.867
  C       68.129     406.445     191.209
  C       67.985     407.831     191.053
  N       68.931     408.627     190.446
  N       69.124     405.563     190.843
  C       68.713     404.384     191.275
  N       67.508     404.464     191.904
  O       69.574     398.603     189.626
  O       71.001     400.669     189.077
  H       64.179     403.368     193.086
  H       69.525     398.581     188.653
  H       65.044     408.151     192.503
  H       69.261     403.463     191.157
  H       66.472     403.715     193.539
  H       65.130     403.777     191.039
  H       66.656     402.113     190.075
  H       66.285     400.598     192.726
  H       68.441     399.637     192.288
  H       68.679     409.579     190.238
  H       69.690     408.165     189.952
  H       67.452     399.355     190.837
  P       64.921     400.677     188.864
  C       63.109     402.498     188.741
  O       64.411     402.117     188.335
  O       63.595     399.778     188.763
  O       66.142     400.134     188.208
  H       62.864     400.137     189.291
  H       62.910     403.497     188.354
  H       63.031     402.521     189.831
  H       62.365     401.810     188.333
  H       72.182     400.178     193.012
  H       70.946     401.306     192.509
  H       72.379     401.086     191.533

 3  4  5  6  7  8  9  10  11  12  22  25  29  30  31  32 0
 6-311+G(2d,p)
 ****
 33  36  37 0
 6-311+G(2d,p)
 ****
 1  2  13  14  15  16  17  18  19  20  21  23  24  26 0
 3-21G
 ****
 27  28  34  35  38  39  40  41  42  43  44  45  46  47  48 0
 3-21G
 ****


