%nproc=1
%NoSave
%Mem=1900MB
#P OB98/GEN NMR

erre ene a

0 1
  C     -458.437     -73.503     398.809
  O     -457.666     -72.489     398.198
  P     -456.222     -72.097     398.776
  C     -456.568     -69.581     398.323
  O     -456.368     -70.591     399.311
  C     -457.639     -68.590     398.773
  O     -458.751     -69.284     399.382
  C     -457.164     -67.582     399.808
  O     -456.385     -66.565     399.194
  C     -458.486     -67.106     400.386
  O     -459.079     -66.091     399.565
  C     -459.334     -68.400     400.360
  N     -459.430     -69.028     401.674
  C     -459.546     -68.158     402.761
  O     -459.523     -66.936     402.591
  N     -459.630     -68.691     404.028
  C     -459.580     -69.974     404.188
  N     -459.657     -70.442     405.460
  C     -459.434     -70.926     403.071
  C     -459.362     -70.390     401.852
  O     -455.078     -72.342     397.843
  O     -456.127     -72.952     400.128
  H     -458.398     -65.386     399.469
  H     -455.973     -73.909     399.941
  H     -459.385     -71.992     403.252
  H     -459.246     -71.015     400.973
  H     -460.352     -68.180     400.009
  H     -458.369     -66.678     401.389
  H     -456.584     -68.090     400.587
  H     -458.012     -68.067     397.879
  H     -459.733     -69.754     406.203
  H     -456.883     -70.066     397.395
  H     -459.594     -71.418     405.704
  H     -455.618     -69.067     398.134
  P     -454.860     -66.361     399.625
  C     -455.117     -63.814     399.751
  O     -454.757     -64.997     400.447
  O     -453.859     -66.519     398.525
  O     -454.634     -67.480     400.751
  H     -453.779     -67.922     400.592
  H     -455.329     -63.030     400.481
  H     -456.006     -63.973     399.137
  H     -454.286     -63.495     399.122
  H     -459.361     -73.616     398.281
  H     -458.637     -73.235     399.825
  H     -457.897     -74.426     398.783

 3  4  5  6  7  8  9  10  11  12  13  23  27  28  29  30  32 0
 6-311+G(2d,p)
 ****
 34  35 0
 6-311+G(2d,p)
 ****
 1  2  14  15  16  17  18  19  20  21  22  24  25  26 0
 3-21G
 ****
 31  33  36  37  38  39  40  41  42  43  44  45  46 0
 3-21G
 ****


