%nproc=1
%NoSave
%Mem=1900MB
#P OB98/GEN NMR

erre ene a

0 1
  C     -116.678     345.016    -121.889
  O     -117.058     343.871    -122.628
  P     -116.780     342.434    -121.973
  C     -114.677     340.939    -121.599
  O     -115.237     342.084    -122.232
  C     -113.834     340.159    -122.616
  O     -112.865     341.026    -123.242
  C     -113.023     339.028    -121.991
  O     -113.830     337.886    -121.748
  C     -111.956     338.795    -123.047
  O     -112.441     337.944    -124.101
  C     -111.713     340.224    -123.576
  N     -110.475     340.810    -123.063
  C     -109.314     340.088    -123.306
  O     -109.310     339.007    -123.893
  N     -108.158     340.630    -122.814
  C     -108.062     341.770    -122.069
  O     -107.003     342.176    -121.604
  C     -109.330     342.478    -121.820
  C     -110.459     341.972    -122.314
  O     -117.568     341.419    -122.925
  O     -117.210     342.309    -120.548
  H     -113.224     338.393    -124.480
  H     -117.940     340.687    -122.396
  H     -107.303     340.135    -122.999
  H     -109.286     343.388    -121.235
  H     -111.401     342.472    -122.130
  H     -111.656     340.217    -124.667
  H     -111.065     338.316    -122.634
  H     -112.545     339.376    -121.066
  H     -114.500     339.769    -123.395
  H     -115.479     340.303    -121.226
  H     -114.063     341.261    -120.757
  P     -113.575     337.096    -120.372
  C     -111.576     335.649    -119.505
  O     -112.110     336.453    -120.532
  O     -114.594     335.871    -120.536
  O     -113.805     337.939    -119.162
  H     -114.690     335.601    -121.470
  H     -112.355     335.051    -119.018
  H     -111.092     336.285    -118.763
  H     -110.836     334.974    -119.934
  H     -116.922     345.897    -122.445
  H     -115.624     344.990    -121.707
  H     -117.201     345.028    -120.955

 3  4  5  6  7  8  9  10  11  12  13  23  28  29  30  31  32 0
 6-311+G(2d,p)
 ****
 33  34 0
 6-311+G(2d,p)
 ****
 1  2  14  15  16  17  18  19  20  21  22  24  25  26 0
 3-21G
 ****
 27  35  36  37  38  39  40  41  42  43  44  45 0
 3-21G
 ****


