%nproc=1
%NoSave
%Mem=1900MB
#P OB98/GEN NMR

erre ene a

0 1
  C     -344.473    -270.776    -294.175
  O     -343.434    -271.750    -294.356
  P     -343.516    -273.106    -293.509
  C     -341.617    -272.510    -291.832
  O     -342.076    -273.375    -292.858
  C     -340.186    -272.876    -291.427
  O     -339.237    -272.533    -292.464
  C     -339.707    -272.164    -290.170
  O     -340.151    -272.825    -288.992
  C     -338.197    -272.314    -290.308
  O     -337.792    -273.626    -289.885
  C     -337.996    -272.145    -291.819
  N     -334.482    -269.223    -293.993
  C     -334.499    -270.587    -293.787
  N     -333.429    -271.274    -294.233
  N     -335.481    -271.218    -293.196
  C     -336.493    -270.408    -292.820
  C     -336.591    -269.039    -292.969
  C     -335.498    -268.348    -293.609
  O     -335.415    -267.140    -293.803
  N     -337.769    -268.566    -292.453
  C     -338.397    -269.644    -292.014
  N     -337.654    -270.784    -292.199
  O     -343.606    -274.232    -294.646
  O     -344.676    -273.175    -292.568
  H     -337.932    -273.669    -288.919
  H     -344.084    -275.010    -294.303
  H     -333.695    -268.781    -294.444
  H     -339.375    -269.644    -291.557
  H     -337.202    -272.798    -292.208
  H     -337.652    -271.596    -289.684
  H     -332.659    -270.858    -294.740
  H     -339.985    -271.105    -290.182
  H     -333.439    -272.283    -294.120
  H     -340.146    -273.964    -291.266
  H     -342.276    -272.563    -290.963
  H     -341.684    -271.474    -292.187
  P     -341.135    -272.027    -288.006
  C     -339.926    -272.228    -285.723
  O     -340.958    -272.689    -286.567
  O     -342.583    -272.510    -288.494
  O     -340.998    -270.540    -288.065
  H     -343.233    -271.795    -288.357
  H     -340.056    -272.673    -284.734
  H     -339.960    -271.138    -285.626
  H     -338.954    -272.531    -286.119
  H     -344.283    -269.931    -294.803
  H     -344.494    -270.463    -293.152
  H     -345.417    -271.208    -294.435

 3  4  5  6  7  8  9  10  11  12  23  26  30  31 0
 6-311+G(2d,p)
 ****
 33  35  36  37  38 0
 6-311+G(2d,p)
 ****
 1  2  13  14  15  16  17  18  19  20  21  22  24  25 0
 3-21G
 ****
 27  28  29  32  34  39  40  41  42  43  44  45  46  47  48  49 0
 3-21G
 ****


