%nproc=1
%NoSave
%Mem=1900MB
#P OB98/GEN NMR

erre ene a

0 1
  C     -183.762     359.817     405.463
  O     -183.430     359.133     406.656
  P     -184.446     358.023     407.209
  C     -184.138     358.979     409.638
  O     -184.134     357.854     408.775
  C     -182.867     358.994     410.495
  O     -182.898     357.850     411.397
  C     -181.561     358.922     409.699
  O     -180.591     359.711     410.400
  C     -181.196     357.446     409.780
  O     -179.814     357.208     409.552
  C     -181.671     357.113     411.199
  N     -181.888     355.683     411.420
  C     -180.784     354.899     411.753
  O     -179.638     355.335     411.846
  N     -181.042     353.564     411.947
  C     -182.247     352.942     411.777
  O     -182.417     351.740     411.947
  C     -183.361     353.818     411.382
  C     -183.143     355.121     411.234
  O     -183.842     356.697     406.547
  O     -185.876     358.297     406.880
  H     -182.871     356.701     406.492
  H     -179.616     356.290     409.824
  H     -180.268     352.983     412.221
  H     -184.336     353.355     411.222
  H     -183.942     355.783     410.935
  H     -180.949     357.492     411.934
  H     -181.769     356.888     409.029
  H     -181.671     359.285     408.673
  H     -182.889     359.897     411.118
  H     -185.014     358.927     410.295
  H     -184.219     359.893     409.039
  P     -179.929     360.961     409.617
  C     -177.484     360.141     410.093
  O     -178.455     361.165     410.214
  O     -180.745     362.170     410.276
  O     -180.053     360.912     408.129
  H     -180.784     362.126     411.244
  H     -176.495     360.582     410.244
  H     -177.510     359.677     409.110
  H     -177.649     359.388     410.867
  H     -182.990     360.519     405.228
  H     -184.688     360.336     405.595
  H     -183.859     359.113     404.663

 3  4  5  6  7  8  9  10  11  12  13  24  28  29  30  31  32 0
 6-311+G(2d,p)
 ****
 33  34 0
 6-311+G(2d,p)
 ****
 1  2  14  15  16  17  18  19  20  21  22  23  25  26  27 0
 3-21G
 ****
 35  36  37  38  39  40  41  42  43  44  45 0
 3-21G
 ****


