%nproc=1
%NoSave
%Mem=1900MB
#P OB98/GEN NMR

erre ene a

0 1
  C      155.643    -107.896     -39.053
  O      156.007    -109.240     -38.770
  P      155.228    -109.989     -37.581
  C      156.651    -110.513     -35.470
  O      155.960    -109.526     -36.229
  C      158.083    -110.670     -35.973
  O      158.726    -109.382     -36.051
  C      158.974    -111.522     -35.082
  O      158.797    -112.910     -35.317
  C      160.353    -111.078     -35.549
  O      160.687    -111.737     -36.784
  C      160.141    -109.580     -35.790
  N      164.127    -107.901     -33.064
  C      164.043    -108.773     -34.089
  N      162.942    -109.178     -34.755
  C      161.839    -108.611     -34.239
  C      161.767    -107.734     -33.169
  C      162.982    -107.365     -32.574
  N      163.069    -106.453     -31.548
  N      160.461    -107.371     -32.928
  C      159.754    -108.008     -33.839
  N      160.544    -108.764     -34.662
  O      155.692    -111.510     -37.749
  O      153.746    -109.846     -37.609
  H      159.875    -111.749     -37.328
  H      155.034    -112.107     -37.344
  H      164.985    -109.197     -34.427
  H      158.681    -107.946     -33.946
  H      160.686    -109.217     -36.669
  H      161.143    -111.322     -34.832
  H      158.845    -111.264     -34.025
  H      158.039    -111.087     -36.988
  H      156.130    -111.470     -35.571
  H      163.983    -106.105     -31.302
  H      162.244    -105.910     -31.322
  H      156.645    -110.220     -34.417
  P      158.969    -113.885     -34.053
  C      161.110    -115.355     -34.147
  O      160.549    -114.083     -33.883
  O      158.457    -115.295     -34.610
  O      158.220    -113.447     -32.839
  H      158.136    -115.853     -33.878
  H      162.188    -115.241     -34.288
  H      160.683    -115.794     -35.053
  H      160.934    -116.021     -33.299
  H      156.239    -107.528     -39.862
  H      155.807    -107.292     -38.185
  H      154.609    -107.856     -39.325

 3  4  5  6  7  8  9  10  11  12  22  25  29  30  31  32 0
 6-311+G(2d,p)
 ****
 33  36  37 0
 6-311+G(2d,p)
 ****
 1  2  13  14  15  16  17  18  19  20  21  23  24  26 0
 3-21G
 ****
 27  28  34  35  38  39  40  41  42  43  44  45  46  47  48 0
 3-21G
 ****


