%nproc=1
%NoSave
%Mem=1900MB
#P OB98/GEN NMR

erre ene a

0 1
  C     -398.394     153.022    -262.957
  O     -397.234     152.260    -263.244
  P     -397.372     150.670    -263.375
  C     -397.792     151.078    -265.914
  O     -398.161     150.361    -264.743
  C     -397.778     150.150    -267.133
  O     -399.080     149.495    -267.247
  C     -397.509     150.865    -268.458
  O     -396.772     149.958    -269.300
  C     -398.909     151.054    -269.024
  O     -398.921     151.285    -270.425
  C     -399.555     149.736    -268.589
  N     -401.013     149.767    -268.651
  C     -401.616     149.496    -269.874
  O     -400.984     149.233    -270.906
  N     -402.980     149.594    -269.915
  C     -403.779     150.017    -268.893
  O     -404.988     150.200    -269.027
  C     -403.096     150.296    -267.621
  C     -401.767     150.160    -267.555
  O     -398.430     150.298    -262.231
  O     -396.089     149.919    -263.218
  H     -399.793     151.646    -270.657
  H     -397.976     149.955    -261.442
  H     -403.427     149.390    -270.793
  H     -403.709     150.613    -266.783
  H     -401.232     150.372    -266.633
  H     -399.186     148.908    -269.213
  H     -399.382     151.915    -268.536
  H     -396.962     151.811    -268.350
  H     -397.034     149.367    -266.961
  H     -396.795     151.505    -265.774
  H     -398.490     151.910    -266.071
  P     -395.830     150.589    -270.437
  C     -393.911     150.940    -268.697
  O     -394.742     151.497    -269.692
  O     -396.832     151.649    -271.106
  O     -395.301     149.574    -271.410
  H     -397.344     152.143    -270.447
  H     -393.655     149.899    -268.911
  H     -394.420     150.992    -267.730
  H     -392.985     151.522    -268.635
  H     -398.135     154.059    -262.902
  H     -398.805     152.707    -262.021
  H     -399.118     152.875    -263.731

 3  4  5  6  7  8  9  10  11  12  13  23  28  29  30  31  32 0
 6-311+G(2d,p)
 ****
 33  34 0
 6-311+G(2d,p)
 ****
 1  2  14  15  16  17  18  19  20  21  22  24  25  26 0
 3-21G
 ****
 27  35  36  37  38  39  40  41  42  43  44  45 0
 3-21G
 ****


