%nproc=1
%NoSave
%Mem=1900MB
#P OB98/GEN NMR

erre ene a

0 1
  C      861.355    -200.651     431.686
  O      862.513    -200.031     432.261
  P      863.600    -199.412     431.250
  C      863.479    -197.541     429.419
  O      862.863    -198.190     430.532
  C      862.868    -196.154     429.212
  O      861.426    -196.255     429.059
  C      863.083    -195.200     430.366
  O      864.422    -194.710     430.391
  C      862.028    -194.141     430.074
  O      862.489    -193.229     429.065
  C      860.868    -195.001     429.511
  N      859.795    -195.212     430.474
  C      858.872    -194.172     430.591
  O      858.939    -193.125     429.940
  N      857.854    -194.373     431.487
  C      857.698    -195.467     432.289
  O      856.755    -195.584     433.069
  C      858.728    -196.502     432.170
  C      859.724    -196.333     431.283
  O      863.668    -200.558     430.134
  O      864.899    -199.098     431.920
  H      862.803    -200.986     429.970
  H      861.776    -192.572     428.942
  H      857.162    -193.633     431.568
  H      858.656    -197.378     432.813
  H      860.497    -197.087     431.177
  H      860.443    -194.521     428.621
  H      861.770    -193.549     430.954
  H      862.858    -195.699     431.324
  H      863.282    -195.734     428.283
  H      863.340    -198.139     428.508
  H      864.559    -197.469     429.610
  P      865.442    -195.439     431.400
  C      867.201    -197.323     430.978
  O      865.945    -196.761     430.654
  O      864.436    -195.979     432.524
  O      866.522    -194.533     431.915
  H      863.635    -196.384     432.149
  H      867.217    -198.364     430.649
  H      867.397    -197.291     432.051
  H      867.996    -196.778     430.450
  H      860.721    -201.016     432.467
  H      861.659    -201.466     431.063
  H      860.820    -199.933     431.099

 3  4  5  6  7  8  9  10  11  12  13  24  28  29  30  31  32 0
 6-311+G(2d,p)
 ****
 33  34 0
 6-311+G(2d,p)
 ****
 1  2  14  15  16  17  18  19  20  21  22  23  25  26  27 0
 3-21G
 ****
 35  36  37  38  39  40  41  42  43  44  45 0
 3-21G
 ****


