%nproc=1
%NoSave
%Mem=1900MB
#P OB98/GEN NMR

erre ene a

0 1
  C     -188.100    -894.210     352.501
  O     -189.098    -895.090     352.036
  H     -187.712    -894.550     353.467
  H     -187.276    -894.200     351.777
  H     -188.494    -893.190     352.598
  P     -190.407    -895.240     352.948
  C     -190.737    -895.990     355.415
  O     -189.948    -896.070     354.240
  C     -189.934    -896.470     356.622
  O     -189.008    -895.440     357.045
  C     -190.774    -896.800     357.850
  O     -191.356    -898.090     357.769
  C     -189.717    -896.740     358.934
  O     -188.918    -897.940     358.904
  C     -188.877    -895.540     358.482
  N     -188.511    -892.510     362.601
  C     -187.971    -893.730     362.329
  N     -188.123    -894.460     361.211
  C     -188.924    -893.840     360.324
  C     -189.546    -892.600     360.483
  C     -189.311    -891.930     361.684
  N     -189.873    -890.700     361.983
  N     -190.323    -892.320     359.377
  C     -190.129    -893.330     358.551
  N     -189.305    -894.280     359.091
  O     -191.307    -896.290     352.141
  O     -191.144    -893.970     353.251
  H     -189.502    -898.680     359.162
  H     -192.241    -896.220     352.423
  H     -187.345    -894.150     363.096
  H     -190.581    -893.420     357.567
  H     -187.807    -895.660     358.716
  H     -190.134    -896.660     359.936
  H     -191.527    -896.030     358.043
  H     -189.340    -897.340     356.313
  H     -191.622    -896.610     355.297
  H     -189.790    -890.400     362.933
  H     -190.580    -890.340     361.365
  H     -191.049    -894.950     355.563
  P     -192.459    -898.480     358.874
  C     -192.326    -899.010     361.418
  O     -191.638    -898.890     360.188
  O     -193.031    -899.870     358.340
  O     -193.523    -897.450     359.082
  H     -193.950    -900.000     358.652
  H     -191.636    -899.288     362.187
  H     -193.084    -899.760     361.331
  H     -192.778    -898.073     361.666

 6  7  8  9  10  11  12  13  14  15  25  28  32  33  34  35 0
 6-311+G(2d,p)
 ****
 36  39  40 0
 6-311+G(2d,p)
 ****
 1  2  3  4  5  16  17  18  19  20  21  22  23  24 0
 3-21G
 ****
 26  27  29  30  31  37  38  41  42  43  44  45  46  47 0
 3-21G
 ****
 48 0
 3-21G
 ****


