%nproc=1
%NoSave
%Mem=1900MB
#P OB98/GEN NMR

erre ene a

0 1
  C      109.358     -75.875    -454.750
  O      108.691     -76.398    -455.906
  P      107.086     -76.323    -455.951
  C      106.539     -73.986    -456.950
  O      106.648     -75.384    -457.172
  C      105.301     -73.424    -457.654
  O      104.985     -72.092    -457.207
  C      105.460     -73.309    -459.166
  O      105.221     -74.555    -459.816
  C      104.359     -72.319    -459.507
  O      103.085     -72.995    -459.551
  C      104.405     -71.362    -458.313
  N      104.286     -66.463    -459.809
  C      103.316     -67.398    -459.716
  N      103.427     -68.684    -459.324
  C      104.697     -68.974    -458.999
  C      105.794     -68.123    -459.052
  C      105.550     -66.805    -459.476
  N      106.541     -65.855    -459.571
  N      106.944     -68.775    -458.649
  C      106.547     -69.997    -458.350
  N      105.201     -70.167    -458.550
  O      106.735     -75.442    -454.661
  O      106.418     -77.657    -455.894
  H      102.408     -72.320    -459.740
  H      105.896     -75.744    -454.270
  H      102.318     -67.073    -459.985
  H      107.189     -70.782    -457.981
  H      103.406     -71.024    -457.999
  H      104.500     -71.848    -460.487
  H      106.440     -72.890    -459.429
  H      104.450     -74.082    -457.428
  H      107.440     -73.474    -457.304
  H      106.288     -64.928    -459.859
  H      107.486     -66.103    -459.302
  H      106.487     -73.799    -455.868
  P      106.084     -74.876    -461.128
  C      108.128     -76.193    -460.214
  O      106.849     -76.250    -460.821
  O      107.238     -73.764    -461.084
  O      105.305     -74.825    -462.400
  H      107.517     -73.534    -461.990
  H      108.359     -77.182    -459.808
  H      108.144     -75.466    -459.394
  H      108.880     -75.934    -460.962
  H      110.415     -75.994    -454.864
  H      109.031     -76.404    -453.880
  H      109.126     -74.836    -454.644

 3  4  5  6  7  8  9  10  11  12  22  25  29  30  31  32 0
 6-311+G(2d,p)
 ****
 33  36  37 0
 6-311+G(2d,p)
 ****
 1  2  13  14  15  16  17  18  19  20  21  23  24  26 0
 3-21G
 ****
 27  28  34  35  38  39  40  41  42  43  44  45  46  47  48 0
 3-21G
 ****


