%nproc=1
%NoSave
%Mem=1900MB
#P OB98/GEN NMR

erre ene a

0 1
  C       34.169     116.452      57.805
  O       33.539     116.581      56.523
  P       34.442     117.043      55.282
  C       34.280     119.577      55.854
  O       35.121     118.451      55.638
  C       35.048     120.688      56.578
  O       36.341     120.918      55.987
  C       34.344     122.036      56.549
  O       33.344     122.124      57.553
  C       35.495     122.977      56.870
  O       35.745     122.978      58.290
  C       36.666     122.321      56.127
  N       39.149     125.954      53.502
  C       39.085     125.679      54.825
  N       38.389     124.706      55.449
  C       37.715     123.960      54.561
  C       37.684     124.119      53.183
  C       38.445     125.171      52.652
  N       38.506     125.443      51.304
  N       36.873     123.166      52.600
  C       36.434     122.436      53.607
  N       36.910     122.883      54.810
  O       33.356     117.431      54.170
  O       35.378     115.990      54.788
  H       34.951     123.348      58.718
  H       33.698     117.207      53.283
  H       39.673     126.328      55.468
  H       35.779     121.580      53.512
  H       37.607     122.389      56.689
  H       35.287     124.011      56.583
  H       33.948     122.252      55.548
  H       35.196     120.372      57.620
  H       33.404     119.284      56.437
  H       39.095     126.199      50.992
  H       38.002     124.850      50.662
  H       33.902     119.929      54.888
  P       31.824     122.278      57.062
  C       32.098     124.851      56.824
  O       31.782     123.624      56.196
  O       31.047     122.657      58.410
  O       31.259     121.058      56.414
  H       30.130     122.324      58.372
  H       32.319     125.593      56.054
  H       32.974     124.749      57.472
  H       31.242     125.193      57.412
  H       33.445     116.139      58.528
  H       34.580     117.396      58.097
  H       34.952     115.725      57.746

 3  4  5  6  7  8  9  10  11  12  22  25  29  30  31  32 0
 6-311+G(2d,p)
 ****
 33  36  37 0
 6-311+G(2d,p)
 ****
 1  2  13  14  15  16  17  18  19  20  21  23  24  26 0
 3-21G
 ****
 27  28  34  35  38  39  40  41  42  43  44  45  46  47  48 0
 3-21G
 ****


