%nproc=1
%NoSave
%Mem=1900MB
#P OB98/GEN NMR

erre ene a

0 1
  C      538.687    -877.530      88.361
  O      539.621    -878.479      87.866
  P      540.399    -879.376      88.950
  C      540.017    -881.845      88.152
  O      540.881    -880.698      88.185
  C      540.509    -882.824      87.090
  O      540.398    -882.231      85.777
  C      541.973    -883.230      87.235
  O      542.090    -884.266      88.204
  C      542.321    -883.679      85.819
  O      541.846    -885.012      85.574
  C      541.536    -882.656      84.966
  N      545.068    -880.987      81.753
  C      544.625    -882.272      81.994
  N      545.183    -883.260      81.242
  N      543.726    -882.573      82.903
  C      543.279    -881.513      83.599
  C      543.649    -880.181      83.452
  C      544.612    -879.858      82.416
  O      544.958    -878.720      82.088
  N      542.996    -879.369      84.346
  C      542.202    -880.200      84.995
  N      542.325    -881.491      84.572
  O      539.224    -879.883      89.914
  O      541.488    -878.657      89.691
  H      542.028    -885.264      84.651
  H      539.184    -879.326      90.722
  H      545.754    -880.814      81.036
  H      541.502    -879.914      85.776
  H      541.125    -883.106      84.051
  H      543.389    -883.679      85.627
  H      545.893    -883.103      80.544
  H      542.594    -882.374      87.516
  H      544.870    -884.200      81.411
  H      539.849    -883.708      87.117
  H      539.003    -881.517      87.915
  H      540.022    -882.312      89.142
  P      543.166    -884.048      89.389
  C      542.554    -885.515      91.453
  O      543.232    -885.422      90.211
  O      542.423    -883.032      90.381
  O      544.480    -883.501      88.940
  H      543.076    -882.418      90.778
  H      542.260    -886.556      91.611
  H      541.666    -884.875      91.467
  H      543.232    -885.206      92.254
  H      538.244    -877.005      87.541
  H      539.190    -876.835      89.000
  H      537.924    -878.036      88.915

 3  4  5  6  7  8  9  10  11  12  23  26  30  31 0
 6-311+G(2d,p)
 ****
 33  35  36  37  38 0
 6-311+G(2d,p)
 ****
 1  2  13  14  15  16  17  18  19  20  21  22  24  25 0
 3-21G
 ****
 27  28  29  32  34  39  40  41  42  43  44  45  46  47  48  49 0
 3-21G
 ****


