%nproc=1
%NoSave
%Mem=1900MB
#P OB98/GEN NMR

erre ene a

0 1
  C     -217.237    -400.835    -326.483
  O     -216.809    -400.233    -325.270
  P     -217.145    -400.915    -323.854
  C     -217.385    -398.489    -323.047
  O     -216.852    -399.769    -322.760
  C     -216.745    -397.439    -322.120
  O     -217.243    -397.665    -320.777
  C     -215.220    -397.482    -322.010
  O     -214.532    -396.778    -323.032
  C     -215.023    -396.758    -320.676
  O     -215.121    -395.332    -320.881
  C     -216.189    -397.278    -319.847
  N     -214.204    -398.719    -315.353
  C     -214.466    -397.503    -315.883
  N     -214.976    -397.204    -317.091
  C     -215.282    -398.326    -317.778
  C     -215.079    -399.637    -317.372
  C     -214.511    -399.821    -316.089
  N     -214.271    -401.057    -315.544
  N     -215.492    -400.512    -318.347
  C     -215.940    -399.738    -319.328
  N     -215.839    -398.411    -319.013
  O     -216.473    -402.227    -323.619
  O     -218.738    -401.017    -323.835
  H     -215.952    -395.157    -321.366
  H     -219.020    -401.659    -323.146
  H     -214.219    -396.653    -315.243
  H     -216.345    -400.102    -320.266
  H     -216.616    -396.494    -319.194
  H     -214.028    -396.937    -320.247
  H     -214.858    -398.519    -321.915
  H     -217.085    -396.445    -322.452
  H     -218.458    -398.508    -322.870
  H     -213.994    -401.103    -314.584
  H     -214.652    -401.873    -316.029
  H     -217.210    -398.225    -324.101
  P     -213.691    -397.667    -324.082
  C     -212.588    -395.330    -324.539
  O     -212.927    -396.613    -325.032
  O     -214.480    -398.708    -324.800
  O     -212.511    -398.264    -323.182
  H     -211.874    -397.618    -322.842
  H     -211.943    -394.835    -325.274
  H     -212.033    -395.410    -323.592
  H     -213.477    -394.732    -324.392
  H     -216.919    -400.235    -327.310
  H     -218.304    -400.911    -326.486
  H     -216.810    -401.813    -326.566

 3  4  5  6  7  8  9  10  11  12  22  25  29  30  31  32 0
 6-311+G(2d,p)
 ****
 33  36  37 0
 6-311+G(2d,p)
 ****
 1  2  13  14  15  16  17  18  19  20  21  23  24  26 0
 3-21G
 ****
 27  28  34  35  38  39  40  41  42  43  44  45  46  47  48 0
 3-21G
 ****


