%nproc=1
%NoSave
%Mem=1900MB
#P OB98/GEN NMR

erre ene a

0 1
  C      259.363     -86.545       4.995
  O      258.282     -86.922       4.165
  H      259.165     -85.548       5.394
  H      260.296     -86.515       4.423
  H      259.463     -87.245       5.830
  P      258.365     -88.320       3.387
  C      260.036     -89.230       1.631
  O      259.353     -88.090       2.145
  C      261.431     -88.841       1.136
  O      262.096     -88.013       2.112
  C      262.361     -90.031       0.903
  O      262.016     -90.705      -0.296
  C      263.710     -89.331       0.891
  O      263.943     -88.680      -0.367
  C      263.516     -88.288       2.018
  N      264.047     -88.719       3.308
  C      264.195     -87.718       4.279
  O      263.898     -86.551       4.014
  N      264.690     -88.070       5.510
  C      264.971     -89.310       5.769
  N      265.457     -89.594       7.017
  C      264.795     -90.400       4.788
  C      264.345     -90.036       3.589
  O      257.059     -88.955       3.027
  O      259.223     -89.258       4.365
  H      263.978     -89.390      -1.036
  H      258.638     -89.780       4.942
  H      265.033     -91.422       5.049
  H      264.185     -90.773       2.807
  H      264.002     -87.336       1.747
  H      264.537     -90.024       1.052
  H      262.331     -90.715       1.760
  H      261.314     -88.246       0.223
  H      265.540     -88.815       7.658
  H      259.438     -89.618       0.801
  H      265.552     -90.531       7.373
  H      260.113     -90.012       2.398
  P      262.634     -92.137      -0.659
  C      265.076     -92.931      -0.861
  O      264.167     -91.860      -1.067
  O      261.854     -92.935      -1.649
  O      262.784     -92.861       0.761
  H      261.904     -93.192       1.075
  H      266.056     -92.631      -1.167
  H      264.766     -93.777      -1.438
  H      265.090     -93.192       0.177

 6  7  8  9  10  11  12  13  14  15  16  26  30  31  32  33  35 0
 6-311+G(2d,p)
 ****
 37  38 0
 6-311+G(2d,p)
 ****
 1  2  3  4  5  17  18  19  20  21  22  23  24  25 0
 3-21G
 ****
 27  28  29  34  36  39  40  41  42  43  44  45  46 0
 3-21G
 ****


