%nproc=1
%NoSave
%Mem=1900MB
#P OB98/GEN NMR

erre ene a

0 1
  C      226.933     133.775     173.930
  O      226.190     132.637     174.318
  H      226.283     134.653     173.977
  H      227.299     133.659     172.906
  H      227.776     133.922     174.612
  P      226.939     131.220     174.209
  C      225.424     130.178     172.357
  O      226.672     130.770     172.688
  C      225.319     129.997     170.848
  O      225.367     131.274     170.172
  C      226.443     129.172     170.228
  O      226.296     127.776     170.429
  C      226.277     129.555     168.769
  O      225.129     128.880     168.220
  C      226.027     131.075     168.893
  N      227.258     131.867     168.819
  C      227.838     132.008     167.552
  O      227.327     131.486     166.565
  N      229.012     132.716     167.442
  C      229.549     133.252     168.492
  N      230.712     133.937     168.320
  C      228.966     133.139     169.843
  C      227.836     132.441     169.932
  O      225.990     130.235     175.038
  O      228.370     131.202     174.629
  H      225.116     129.082     167.267
  H      226.284     129.298     174.912
  H      229.457     133.592     170.693
  H      227.347     132.314     170.892
  H      225.338     131.424     168.113
  H      227.131     129.283     168.149
  H      227.427     129.512     170.573
  H      224.338     129.550     170.633
  H      231.118     133.947     167.392
  H      224.625     130.841     172.713
  H      231.280     134.259     169.090
  H      225.325     129.208     172.848
  P      227.640     126.903     170.548
  C      227.501     126.416     167.993
  O      228.295     126.857     169.086
  O      227.090     125.417     170.753
  O      228.563     127.320     171.651
  H      227.682     124.903     171.338
  H      228.083     126.445     167.095
  H      226.651     127.057     167.888
  H      227.172     125.414     168.173

 6  7  8  9  10  11  12  13  14  15  16  26  30  31  32  33  35 0
 6-311+G(2d,p)
 ****
 37  38 0
 6-311+G(2d,p)
 ****
 1  2  3  4  5  17  18  19  20  21  22  23  24  25 0
 3-21G
 ****
 27  28  29  34  36  39  40  41  42  43  44  45  46 0
 3-21G
 ****


