%nproc=1
%NoSave
%Mem=1900MB
#P OB98/GEN NMR

erre ene a

0 1
  C       43.962    -690.313    -526.521
  O       45.066    -691.044    -526.025
  P       45.317    -692.565    -526.460
  C       47.363    -691.964    -527.888
  O       46.071    -692.557    -527.873
  C       48.399    -692.911    -528.477
  O       48.543    -694.074    -527.625
  C       48.062    -693.406    -529.893
  O       49.301    -693.465    -530.630
  C       47.519    -694.804    -529.654
  O       47.610    -695.620    -530.802
  C       48.383    -695.234    -528.466
  N       47.800    -696.341    -527.727
  C       47.849    -697.598    -528.316
  O       48.268    -697.724    -529.480
  N       47.425    -698.687    -527.602
  C       46.811    -698.508    -526.463
  N       46.469    -699.610    -525.757
  C       46.514    -697.164    -525.922
  C       47.064    -696.142    -526.576
  O       44.114    -693.445    -526.402
  O       46.450    -693.075    -525.454
  H       46.142    -693.903    -525.018
  H       47.242    -696.506    -530.592
  H       45.895    -697.059    -525.047
  H       46.913    -695.117    -526.238
  H       49.384    -695.537    -528.808
  H       46.466    -694.734    -529.364
  H       47.370    -692.747    -530.416
  H       49.370    -692.395    -528.481
  H       46.727    -700.512    -526.137
  H       47.639    -691.738    -526.849
  H       46.293    -699.573    -524.753
  H       47.341    -691.018    -528.447
  P       49.225    -693.433    -532.232
  C       49.851    -690.931    -532.490
  O       48.883    -691.939    -532.690
  O       47.842    -694.201    -532.511
  O       50.332    -694.123    -532.956
  H       47.870    -694.604    -533.402
  H       49.417    -689.977    -532.791
  H       50.734    -691.124    -533.101
  H       50.122    -690.861    -531.434
  H       43.976    -689.325    -526.112
  H       43.054    -690.803    -526.239
  H       44.021    -690.258    -527.588

 3  4  5  6  7  8  9  10  11  12  13  24  27  28  29  30  32 0
 6-311+G(2d,p)
 ****
 34  35 0
 6-311+G(2d,p)
 ****
 1  2  14  15  16  17  18  19  20  21  22  23  25  26 0
 3-21G
 ****
 31  33  36  37  38  39  40  41  42  43  44  45  46 0
 3-21G
 ****


