%nproc=1
%NoSave
%Mem=1900MB
#P OB98/GEN NMR

erre ene a

0 1
  C      -40.133     -99.216    -538.527
  O      -39.977    -100.278    -539.477
  P      -39.317     -99.879    -540.888
  C      -41.444     -98.893    -542.009
  O      -40.137     -98.639    -541.494
  C      -41.882     -97.811    -543.006
  O      -41.953     -96.536    -542.321
  C      -40.952     -97.634    -544.207
  O      -41.746     -97.339    -545.367
  C      -40.180     -96.368    -543.863
  O      -39.649     -95.726    -545.020
  C      -41.262     -95.570    -543.129
  N      -39.510     -90.819    -543.087
  C      -40.090     -91.541    -544.117
  N      -40.205     -90.906    -545.302
  N      -40.529     -92.769    -543.985
  C      -40.385     -93.260    -542.732
  C      -39.828     -92.641    -541.630
  C      -39.310     -91.300    -541.798
  O      -38.735     -90.631    -540.936
  N      -39.856     -93.470    -540.532
  C      -40.414     -94.581    -540.973
  N      -40.742     -94.507    -542.303
  O      -39.703    -101.111    -541.832
  O      -37.833     -99.688    -540.818
  H      -39.101     -96.387    -545.487
  H      -38.896    -101.505    -542.219
  H      -39.174     -89.884    -543.246
  H      -40.581     -95.473    -540.378
  H      -41.984     -95.132    -543.836
  H      -39.341     -96.623    -543.198
  H      -39.954     -89.944    -545.455
  H      -40.297     -98.482    -544.413
  H      -40.672     -91.397    -546.060
  H      -42.896     -98.058    -543.348
  H      -42.157     -98.934    -541.184
  H      -41.437     -99.878    -542.497
  P      -41.951     -98.545    -546.418
  C      -39.975     -97.642    -547.864
  O      -40.527     -98.732    -547.140
  O      -42.877     -97.889    -547.544
  O      -42.557     -99.779    -545.820
  H      -43.403     -98.585    -547.992
  H      -40.517     -96.701    -547.671
  H      -40.031     -97.869    -548.930
  H      -38.934     -97.519    -547.568
  H      -40.579     -99.600    -537.633
  H      -40.762     -98.456    -538.942
  H      -39.175     -98.800    -538.297

 3  4  5  6  7  8  9  10  11  12  23  26  30  31  33  0
 6-311+G(2d,p)
 ****
 35  36  37  38 0
 6-311+G(2d,p)
 ****
 1  2  13  14  15  16  17  18  19  20  21  22  24  25  27  28  29 0
 3-21G
 ****
 32  34  39  40  41  42  43  44  45  46  47  48  49 0
 3-21G
 ****


