%nproc=1
%NoSave
%Mem=1900MB
#P OB98/GEN NMR

erre ene a

0 1
  C      130.984    -714.217     272.121
  O      131.625    -714.536     273.339
  P      130.942    -714.145     274.738
  C      133.135    -714.734     275.949
  O      132.111    -713.763     275.771
  C      134.207    -714.213     276.899
  O      135.058    -713.250     276.232
  C      133.658    -713.478     278.112
  O      133.081    -714.360     279.056
  C      134.904    -712.747     278.601
  O      135.741    -713.619     279.365
  C      135.583    -712.378     277.267
  N      135.404    -710.973     276.917
  C      136.432    -710.108     277.289
  O      137.394    -710.525     277.951
  N      136.360    -708.788     276.917
  C      135.280    -708.352     276.330
  N      135.280    -707.053     275.931
  C      134.103    -709.202     276.066
  C      134.239    -710.494     276.358
  O      129.943    -715.123     275.256
  O      130.254    -712.727     274.445
  H      129.325    -712.760     274.751
  H      135.208    -713.919     280.131
  H      133.206    -708.772     275.641
  H      133.435    -711.196     276.178
  H      136.659    -712.587     277.316
  H      134.663    -711.888     279.238
  H      132.907    -712.743     277.794
  H      134.828    -715.060     277.215
  H      136.114    -706.504     276.111
  H      133.581    -714.955     274.979
  H      134.661    -706.707     275.198
  H      132.686    -715.659     276.346
  P      131.983    -713.742     280.047
  C      131.732    -716.091     281.119
  O      131.900    -714.703     281.330
  O      130.596    -714.020     279.283
  O      132.159    -712.292     280.350
  H      129.983    -713.270     279.434
  H      132.044    -716.623     282.024
  H      132.334    -716.442     280.276
  H      130.677    -716.305     280.929
  H      131.586    -714.554     271.303
  H      130.852    -713.157     272.054
  H      130.029    -714.699     272.084

 3  4  5  6  7  8  9  10  11  12  13  24  27  28  29  30  32 0
 6-311+G(2d,p)
 ****
 34  35 0
 6-311+G(2d,p)
 ****
 1  2  14  15  16  17  18  19  20  21  22  23  25  26 0
 3-21G
 ****
 31  33  36  37  38  39  40  41  42  43  44  45  46 0
 3-21G
 ****


