%nproc=1
%NoSave
%Mem=1900MB
#P OB98/GEN NMR

erre ene a

0 1
  C      216.113     740.384     -78.398
  O      215.710     739.772     -79.604
  H      215.447     741.228     -78.195
  H      217.134     740.758     -78.500
  H      216.059     739.685     -77.558
  P      216.191     738.278     -79.908
  C      216.860     739.001     -82.295
  O      216.157     738.054     -81.497
  C      216.596     738.792     -83.786
  O      217.117     737.510     -84.194
  C      215.101     738.790     -84.124
  O      214.552     740.075     -84.368
  C      215.060     737.928     -85.380
  O      215.267     738.719     -86.562
  C      216.229     736.952     -85.180
  N      217.130     731.920     -85.145
  C      217.785     732.913     -85.845
  N      218.777     732.503     -86.669
  N      217.479     734.179     -85.761
  C      216.400     734.427     -84.980
  C      215.657     733.521     -84.248
  C      216.057     732.130     -84.295
  O      215.515     731.219     -83.678
  N      214.615     734.135     -83.603
  C      214.667     735.386     -84.015
  N      215.788     735.630     -84.786
  O      214.960     737.378     -79.402
  O      217.462     737.858     -79.227
  H      214.487     739.289     -86.689
  H      215.289     736.522     -79.079
  H      217.429     730.966     -85.233
  H      213.964     736.166     -83.750
  H      216.812     736.834     -86.102
  H      214.092     737.445     -85.489
  H      218.998     731.530     -86.841
  H      214.526     738.284     -83.340
  H      219.156     733.172     -87.342
  H      217.137     739.556     -84.359
  H      217.920     738.859     -82.078
  H      216.596     740.020     -81.996
  P      213.510     740.737     -83.357
  C      211.959     742.127     -84.958
  O      212.988     742.103     -83.988
  O      214.436     741.218     -82.145
  O      212.412     739.839     -82.893
  H      214.413     740.577     -81.412
  H      211.764     743.139     -85.246
  H      211.071     741.695     -84.546
  H      212.264     741.565     -85.816

 6  7  8  9  10  11  12  13  14  15  26  29  33  34 0
 6-311+G(2d,p)
 ****
 36  38  39  40  41 0
 6-311+G(2d,p)
 ****
 1  2  3  4  5  16  17  18  19  20  21  22  23  24  25 0
 3-21G
 ****
 27  28  30  31  32  35  37  42  43  44  45  46  47 0
 3-21G
 ****
 48  49 0
 3-21G
 ****


