%nproc=1
%NoSave
%Mem=1900MB
#P OB98/GEN NMR

erre ene a

0 1
  C      359.921      27.018     -58.019
  O      360.413      25.886     -57.325
  P      361.651      25.063     -57.916
  C      362.160      23.975     -55.642
  O      361.842      23.753     -57.015
  C      361.817      22.739     -54.813
  O      360.394      22.502     -54.829
  C      362.454      21.453     -55.323
  O      363.824      21.395     -54.976
  C      361.579      20.404     -54.647
  O      362.003      20.188     -53.291
  C      360.197      21.077     -54.676
  N      355.899      18.537     -55.722
  C      356.565      18.740     -54.567
  N      357.730      19.398     -54.375
  C      358.213      19.846     -55.545
  C      357.665      19.685     -56.808
  C      356.434      19.010     -56.872
  N      355.713      18.851     -58.038
  N      358.477      20.263     -57.765
  C      359.500      20.754     -57.092
  N      359.352      20.583     -55.745
  O      362.894      25.858     -58.151
  O      361.090      24.473     -59.295
  H      362.957      19.990     -53.314
  H      361.629      24.812     -60.037
  H      356.098      18.330     -53.676
  H      360.355      21.252     -57.531
  H      359.653      20.932     -53.735
  H      361.612      19.436     -55.157
  H      362.327      21.379     -56.410
  H      362.115      22.934     -53.774
  H      361.577      24.832     -55.291
  H      354.780      18.484     -57.947
  H      355.939      19.449     -58.830
  H      363.226      24.211     -55.552
  P      364.767      20.286     -55.636
  C      366.659      21.863     -56.358
  O      366.276      20.808     -55.495
  O      364.377      19.837     -57.007
  O      364.714      19.073     -54.593
  H      364.801      18.228     -55.073
  H      366.862      21.465     -57.356
  H      367.570      22.323     -55.969
  H      365.875      22.623     -56.419
  H      359.098      27.438     -57.479
  H      359.595      26.724     -58.995
  H      360.699      27.748     -58.108

 3  4  5  6  7  8  9  10  11  12  22  25  29  30  31  32 0
 6-311+G(2d,p)
 ****
 33  36  37 0
 6-311+G(2d,p)
 ****
 1  2  13  14  15  16  17  18  19  20  21  23  24  26 0
 3-21G
 ****
 27  28  34  35  38  39  40  41  42  43  44  45  46  47  48 0
 3-21G
 ****


