%nproc=1
%NoSave
%Mem=1900MB
#P OB98/GEN NMR

erre ene a

0 1
  C      668.525    -960.095    -199.258
  O      669.178    -961.247    -199.833
  P      668.961    -962.677    -199.142
  C      669.200    -965.131    -199.965
  O      669.699    -963.797    -200.007
  C      669.395    -965.822    -201.326
  O      668.595    -965.222    -202.359
  C      670.835    -965.771    -201.837
  O      671.623    -966.782    -201.247
  C      670.634    -966.047    -203.312
  O      670.469    -967.473    -203.534
  C      669.321    -965.316    -203.610
  N      669.089    -962.435    -207.843
  C      668.869    -963.756    -207.643
  N      668.978    -964.445    -206.473
  C      669.309    -963.642    -205.474
  C      669.574    -962.281    -205.533
  C      669.451    -961.665    -206.787
  N      669.672    -960.319    -207.001
  N      669.911    -961.785    -204.285
  C      669.858    -962.830    -203.485
  N      669.513    -963.962    -204.156
  O      667.399    -962.968    -199.387
  O      669.270    -962.695    -197.680
  H      671.312    -967.890    -203.240
  H      667.029    -963.452    -198.637
  H      668.589    -964.341    -208.508
  H      670.049    -962.809    -202.429
  H      668.676    -965.848    -204.316
  H      671.484    -965.743    -203.940
  H      671.274    -964.768    -201.692
  H      669.084    -966.876    -201.225
  H      668.137    -965.131    -199.714
  H      669.531    -959.943    -207.916
  H      669.918    -959.742    -206.206
  H      669.726    -965.682    -199.170
  P      673.063    -966.343    -200.643
  C      674.082    -966.929    -198.327
  O      673.399    -967.391    -199.487
  O      672.730    -964.985    -199.885
  O      674.130    -966.172    -201.694
  H      673.521    -964.386    -199.914
  H      673.944    -967.664    -197.536
  H      673.677    -965.949    -198.009
  H      675.134    -966.831    -198.551
  H      668.768    -959.224    -199.831
  H      668.857    -959.963    -198.250
  H      667.465    -960.244    -199.268

 3  4  5  6  7  8  9  10  11  12  22  25  29  30  31  32 0
 6-311+G(2d,p)
 ****
 33  36  37 0
 6-311+G(2d,p)
 ****
 1  2  13  14  15  16  17  18  19  20  21  23  24  26 0
 3-21G
 ****
 27  28  34  35  38  39  40  41  42  43  44  45  46  47  48 0
 3-21G
 ****


