%nproc=1
%NoSave
%Mem=1900MB
#P OB98/GEN NMR

erre ene a

0 1
  C     -299.607     111.020    -463.538
  O     -300.749     110.532    -464.222
  P     -302.231     110.841    -463.683
  C     -302.499     113.158    -464.803
  O     -302.309     112.442    -463.593
  C     -303.417     114.354    -464.560
  O     -304.747     113.890    -464.270
  C     -303.012     115.231    -463.381
  O     -301.911     116.058    -463.714
  C     -304.323     115.959    -463.103
  O     -304.499     117.042    -464.032
  C     -305.366     114.857    -463.383
  N     -305.858     114.218    -462.168
  C     -306.938     114.835    -461.533
  O     -307.445     115.858    -461.993
  N     -307.454     114.259    -460.400
  C     -306.918     113.173    -459.926
  N     -307.510     112.605    -458.838
  C     -305.744     112.521    -460.532
  C     -305.273     113.088    -461.643
  O     -302.607     110.126    -462.432
  O     -303.180     110.522    -464.924
  H     -304.498     116.650    -464.927
  H     -303.478     109.578    -464.963
  H     -305.326     111.626    -460.092
  H     -304.424     112.661    -462.159
  H     -306.219     115.274    -463.935
  H     -304.387     116.372    -462.091
  H     -302.747     114.610    -462.517
  H     -303.455     114.950    -465.486
  H     -308.410     112.987    -458.567
  H     -302.966     112.488    -465.532
  H     -307.346     111.640    -458.591
  H     -301.528     113.479    -465.190
  P     -301.037     116.650    -462.507
  C     -298.998     115.045    -462.531
  O     -300.217     115.403    -461.907
  O     -302.133     116.983    -461.389
  O     -300.212     117.843    -462.863
  H     -302.327     117.938    -461.378
  H     -298.463     114.354    -461.878
  H     -298.373     115.928    -462.700
  H     -299.201     114.544    -463.482
  H     -298.722     110.708    -464.053
  H     -299.595     110.631    -462.541
  H     -299.641     112.089    -463.504

 3  4  5  6  7  8  9  10  11  12  13  23  27  28  29  30  32 0
 6-311+G(2d,p)
 ****
 34  35 0
 6-311+G(2d,p)
 ****
 1  2  14  15  16  17  18  19  20  21  22  24  25  26 0
 3-21G
 ****
 31  33  36  37  38  39  40  41  42  43  44  45  46 0
 3-21G
 ****


