%nproc=1
%NoSave
%Mem=1900MB
#P OB98/GEN NMR

erre ene a

0 1
  C     -827.799     384.225    -334.414
  O     -827.791     383.154    -333.466
  P     -829.063     382.963    -332.497
  C     -829.684     380.463    -332.577
  O     -829.958     381.761    -333.082
  C     -828.881     379.644    -333.591
  O     -827.574     380.229    -333.836
  C     -828.597     378.223    -333.120
  O     -829.765     377.417    -333.210
  C     -827.458     377.822    -334.040
  O     -827.967     377.375    -335.320
  C     -826.693     379.142    -334.213
  N     -825.461     379.200    -333.443
  C     -824.381     378.447    -333.943
  O     -824.526     377.765    -334.961
  N     -823.190     378.475    -333.270
  C     -823.071     379.179    -332.192
  N     -821.864     379.175    -331.556
  C     -824.184     379.977    -331.617
  C     -825.347     379.919    -332.286
  O     -829.807     384.205    -332.158
  O     -828.408     382.292    -331.189
  H     -828.581     376.649    -335.138
  H     -828.929     382.570    -330.418
  H     -824.036     380.560    -330.715
  H     -826.206     380.475    -331.921
  H     -826.431     379.297    -335.264
  H     -826.875     376.992    -333.628
  H     -828.238     378.249    -332.078
  H     -829.449     379.620    -334.534
  H     -821.135     378.613    -331.976
  H     -830.633     379.959    -332.351
  H     -821.662     379.732    -330.743
  H     -829.146     380.556    -331.628
  P     -830.588     377.145    -331.852
  C     -832.991     378.007    -332.322
  O     -831.712     378.254    -331.726
  O     -829.531     377.542    -330.699
  O     -831.042     375.733    -331.679
  H     -829.665     376.971    -329.939
  H     -833.720     378.701    -331.886
  H     -833.316     376.971    -332.137
  H     -832.925     378.182    -333.393
  H     -826.888     384.212    -334.975
  H     -827.886     385.158    -333.897
  H     -828.629     384.106    -335.079

 3  4  5  6  7  8  9  10  11  12  13  23  27  28  29  30  32 0
 6-311+G(2d,p)
 ****
 34  35 0
 6-311+G(2d,p)
 ****
 1  2  14  15  16  17  18  19  20  21  22  24  25  26 0
 3-21G
 ****
 31  33  36  37  38  39  40  41  42  43  44  45  46 0
 3-21G
 ****


