%nproc=1
%NoSave
%Mem=1900MB
#P OB98/GEN NMR

erre ene a

0 1
  C     -131.535     -65.847    1076.036
  O     -131.815     -66.472    1074.799
  H     -132.159     -64.955    1076.124
  H     -130.480     -65.549    1076.086
  H     -131.763     -66.525    1076.864
  P     -130.935     -67.743    1074.366
  C     -131.515     -69.555    1072.607
  O     -131.430     -68.157    1072.894
  C     -132.786     -69.869    1071.803
  O     -133.954     -69.621    1072.667
  C     -132.964     -68.998    1070.550
  O     -133.692     -69.783    1069.582
  C     -133.824     -67.862    1071.082
  O     -134.385     -67.111    1070.035
  C     -134.782     -68.649    1071.989
  N     -135.480     -67.779    1072.939
  C     -136.625     -67.146    1072.460
  O     -136.989     -67.317    1071.289
  N     -137.323     -66.302    1073.294
  C     -136.870     -66.076    1074.488
  N     -137.592     -65.225    1075.263
  C     -135.612     -66.679    1075.015
  C     -134.977     -67.517    1074.204
  O     -130.885     -68.863    1075.351
  O     -129.477     -67.142    1074.099
  H     -135.016     -67.648    1069.503
  H     -128.883     -67.365    1074.838
  H     -135.278     -66.436    1076.015
  H     -134.067     -68.006    1074.494
  H     -135.519     -69.192    1071.397
  H     -133.215     -67.161    1071.682
  H     -132.013     -68.661    1070.120
  H     -132.803     -70.932    1071.558
  H     -138.434     -64.835    1074.865
  H     -131.528     -70.079    1073.565
  H     -137.328     -64.943    1076.217
  H     -130.640     -69.878    1072.044
  P     -132.984     -70.485    1068.326
  C     -133.359     -72.753    1067.138
  O     -133.979     -71.587    1067.709
  O     -131.608     -70.993    1068.606
  O     -132.957     -69.346    1067.186
  H     -132.182     -69.496    1066.620
  H     -134.115     -73.411    1066.762
  H     -132.789     -73.258    1067.889
  H     -132.713     -72.458    1066.338

 6  7  8  9  10  11  12  13  14  15  16  26  30  31  32  33  35 0
 6-311+G(2d,p)
 ****
 37  38 0
 6-311+G(2d,p)
 ****
 1  2  3  4  5  17  18  19  20  21  22  23  24  25 0
 3-21G
 ****
 27  28  29  34  36  39  40  41  42  43  44  45  46 0
 3-21G
 ****


