%nproc=1
%NoSave
%Mem=1900MB
#P OB98/GEN NMR

erre ene a

0 1
  C       62.291     -82.688     -64.953
  O       60.929     -82.324     -65.071
  H       62.486     -82.976     -63.917
  H       62.934     -81.843     -65.213
  H       62.508     -83.538     -65.604
  P       60.442     -81.831     -66.518
  C       61.190     -79.379     -66.248
  O       61.442     -80.627     -66.884
  C       61.980     -78.262     -66.932
  O       63.384     -78.427     -66.609
  C       61.849     -78.269     -68.456
  O       61.798     -76.924     -68.929
  C       63.138     -78.923     -68.922
  O       63.498     -78.535     -70.245
  C       64.121     -78.474     -67.843
  N       68.894     -79.384     -69.395
  C       68.074     -78.327     -69.569
  N       66.817     -78.159     -69.105
  C       66.444     -79.211     -68.354
  C       67.168     -80.360     -68.092
  C       68.453     -80.432     -68.658
  N       69.286     -81.516     -68.507
  N       66.427     -81.233     -67.319
  C       65.281     -80.613     -67.107
  N       65.239     -79.395     -67.728
  O       58.990     -81.513     -66.638
  O       60.967     -83.013     -67.458
  H       62.796     -78.840     -70.857
  H       61.875     -83.280     -67.223
  H       68.476     -77.510     -70.162
  H       64.452     -81.008     -66.529
  H       64.538     -77.479     -68.041
  H       63.022     -80.015     -68.910
  H       60.969     -78.815     -68.798
  H       61.669     -77.301     -66.509
  H       61.471     -79.432     -65.191
  H       70.198     -81.478     -68.935
  H       68.982     -82.299     -67.946
  H       60.117     -79.179     -66.313
  P       60.366     -76.288     -69.267
  C       60.804     -76.735     -71.771
  O       59.881     -76.847     -70.692
  O       60.247     -74.813     -69.081
  O       59.396     -77.067     -68.252
  H       58.713     -76.447     -67.930
  H       60.365     -77.140     -72.659
  H       61.696     -77.277     -71.535
  H       61.044     -75.704     -71.930

 6  7  8  9  10  11  12  13  14  15  25  28  32  33  34  35 0
 6-311+G(2d,p)
 ****
 36  39  40 0
 6-311+G(2d,p)
 ****
 1  2  3  4  5  16  17  18  19  20  21  22  23  24 0
 3-21G
 ****
 26  27  29  30  31  37  38  41  42  43  44  45  46  47 0
 3-21G
 ****
 48 0
 3-21G
 ****


