%nproc=1
%NoSave
%Mem=1900MB
#P OB98/GEN NMR

erre ene a

0 1
  C       -7.520    -557.509     427.779
  O       -7.093    -558.487     428.707
  H       -8.597    -557.356     427.867
  H       -7.013    -556.566     428.008
  H       -7.261    -557.812     426.762
  P       -7.744    -559.947     428.548
  C       -5.402    -561.055     428.440
  O       -6.658    -561.006     429.098
  C       -4.444    -561.950     429.201
  O       -4.064    -561.282     430.436
  C       -5.025    -563.333     429.576
  O       -4.131    -564.385     429.192
  C       -5.117    -563.298     431.092
  O       -4.882    -564.567     431.691
  C       -4.055    -562.276     431.468
  N       -3.887    -563.101     436.502
  C       -3.251    -563.690     435.478
  N       -3.255    -563.370     434.165
  C       -4.009    -562.279     433.969
  C       -4.711    -561.539     434.901
  C       -4.649    -562.010     436.231
  N       -5.362    -561.431     437.257
  N       -5.391    -560.483     434.309
  C       -5.136    -560.606     433.030
  N       -4.315    -561.676     432.761
  O       -7.731    -560.186     426.961
  O       -9.116    -560.079     429.112
  H       -4.929    -564.447     432.661
  H       -8.650    -560.296     426.655
  H       -2.645    -564.562     435.738
  H       -5.539    -559.983     432.239
  H       -3.053    -562.724     431.489
  H       -6.125    -562.955     431.388
  H       -6.009    -563.506     429.116
  H       -3.522    -562.077     428.614
  H       -4.984    -560.036     428.383
  H       -5.351    -561.902     438.158
  H       -6.015    -560.695     437.057
  H       -5.552    -561.428     427.418
  P       -4.815    -565.764     428.726
  C       -3.194    -566.168     426.734
  O       -3.699    -566.640     427.980
  O       -5.799    -565.302     427.548
  O       -5.562    -566.467     429.818
  H       -6.714    -565.579     427.751
  H       -2.462    -566.855     426.363
  H       -2.744    -565.207     426.873
  H       -3.997    -566.087     426.031

 6  7  8  9  10  11  12  13  14  15  25  28  32  33  34  35 0
 6-311+G(2d,p)
 ****
 36  39  40 0
 6-311+G(2d,p)
 ****
 1  2  3  4  5  16  17  18  19  20  21  22  23  24 0
 3-21G
 ****
 26  27  29  30  31  37  38  41  42  43  44  45  46  47  48 0
 3-21G
 ****


