%nproc=1
%NoSave
%Mem=1900MB
#P OB98/GEN NMR

erre ene a

0 1
  C      -27.260      80.834     118.841
  O      -27.413      81.111     117.463
  H      -27.028      81.766     119.363
  H      -26.441      80.127     118.998
  H      -28.189      80.423     119.245
  P      -27.648      79.846     116.500
  C      -26.310      77.619     116.262
  O      -26.314      78.971     116.696
  C      -24.922      77.236     115.762
  O      -24.616      77.925     114.529
  C      -23.784      77.593     116.715
  O      -23.659      76.695     117.805
  C      -22.605      77.493     115.762
  O      -22.307      76.107     115.508
  C      -23.184      78.179     114.508
  N      -22.919      79.621     114.469
  C      -21.655      80.014     114.014
  O      -20.822      79.179     113.672
  N      -21.349      81.355     113.993
  C      -22.231      82.228     114.370
  N      -21.869      83.538     114.329
  C      -23.578      81.859     114.843
  C      -23.851      80.555     114.866
  O      -27.455      80.456     115.033
  O      -28.924      79.100     116.697
  H      -21.675      76.091     114.766
  H      -27.434      79.727     114.365
  H      -24.275      82.621     115.160
  H      -24.822      80.208     115.202
  H      -22.784      77.727     113.591
  H      -21.694      77.947     116.152
  H      -23.865      78.628     117.069
  H      -24.932      76.160     115.542
  H      -20.919      83.756     114.057
  H      -27.044      77.515     115.455
  H      -22.426      84.275     114.740
  H      -26.593      76.959     117.088
  P      -23.134      77.299     119.199
  C      -20.800      77.769     120.256
  O      -21.534      77.215     119.169
  O      -23.545      76.176     120.259
  O      -23.698      78.640     119.555
  H      -23.783      76.575     121.118
  H      -19.753      77.633     120.085
  H      -21.081      77.277     121.164
  H      -21.015      78.814     120.336

 6  7  8  9  10  11  12  13  14  15  16  26  30  31  32  33  35 0
 6-311+G(2d,p)
 ****
 37  38 0
 6-311+G(2d,p)
 ****
 1  2  3  4  5  17  18  19  20  21  22  23  24  25 0
 3-21G
 ****
 27  28  29  34  36  39  40  41  42  43  44  45  46 0
 3-21G
 ****


