%nproc=1
%NoSave
%Mem=1900MB
#P OB98/GEN NMR

erre ene a

0 1
  C     -970.953    -809.885    -186.743
  O     -969.963    -809.015    -186.242
  P     -968.545    -809.584    -185.771
  C     -967.203    -808.368    -187.618
  O     -967.628    -809.624    -187.105
  C     -965.738    -808.087    -187.186
  O     -964.868    -809.071    -187.762
  C     -965.232    -806.749    -187.654
  O     -965.742    -805.697    -186.842
  C     -963.711    -806.944    -187.513
  O     -963.279    -806.764    -186.181
  C     -963.572    -808.439    -187.942
  N     -963.097    -808.596    -189.317
  C     -961.707    -808.595    -189.483
  O     -960.961    -808.445    -188.508
  N     -961.180    -808.715    -190.748
  C     -961.994    -808.816    -191.762
  N     -961.424    -808.920    -192.989
  C     -963.465    -808.776    -191.638
  C     -963.945    -808.662    -190.394
  O     -968.592    -810.865    -185.006
  O     -967.895    -808.366    -184.954
  H     -962.361    -807.109    -186.145
  H     -968.323    -808.269    -184.064
  H     -964.100    -808.841    -192.517
  H     -965.007    -808.631    -190.218
  H     -962.897    -808.968    -187.271
  H     -963.155    -806.277    -188.157
  H     -965.503    -806.576    -188.697
  H     -965.716    -808.166    -186.095
  H     -960.407    -808.900    -193.042
  H     -967.859    -807.585    -187.213
  H     -961.962    -808.964    -193.840
  H     -967.299    -808.358    -188.707
  P     -965.746    -804.196    -187.367
  C     -968.276    -804.269    -187.872
  O     -966.974    -804.047    -188.393
  O     -964.449    -803.684    -187.869
  O     -966.242    -803.329    -186.111
  H     -965.681    -802.545    -186.017
  H     -969.008    -803.847    -188.540
  H     -968.390    -803.821    -186.884
  H     -968.456    -805.360    -187.799
  H     -971.824    -809.321    -187.003
  H     -971.205    -810.607    -185.995
  H     -970.580    -810.387    -187.611

 3  4  5  6  7  8  9  10  11  12  13  23  27  28  29  30  32 0
 6-311+G(2d,p)
 ****
 34  35 0
 6-311+G(2d,p)
 ****
 1  2  14  15  16  17  18  19  20  21  22  24  25  26 0
 3-21G
 ****
 31  33  36  37  38  39  40  41  42  43  44  45  46 0
 3-21G
 ****


