%nproc=1
%NoSave
%Mem=1900MB
#P OB98/GEN NMR

erre ene a

0 1
  C      -46.061    -392.025     405.984
  O      -46.743    -391.772     407.192
  H      -46.676    -392.684     405.367
  H      -45.113    -392.527     406.199
  H      -45.870    -391.101     405.431
  P      -46.300    -390.516     408.079
  C      -44.382    -389.988     409.722
  O      -44.838    -390.825     408.668
  C      -43.440    -390.726     410.674
  O      -44.155    -391.769     411.372
  C      -42.295    -391.420     409.934
  O      -41.179    -390.600     409.638
  C      -41.917    -392.527     410.915
  O      -40.993    -392.042     411.905
  C      -43.257    -392.878     411.563
  N      -44.260    -397.844     412.221
  C      -43.548    -396.986     413.038
  N      -42.983    -397.536     414.135
  N      -43.392    -395.714     412.781
  C      -43.930    -395.327     411.601
  C      -44.648    -396.090     410.703
  C      -44.859    -397.487     411.023
  O      -45.478    -398.291     410.330
  N      -45.039    -395.350     409.615
  C      -44.500    -394.164     409.817
  N      -43.840    -394.095     411.022
  O      -47.228    -390.629     409.383
  O      -46.456    -389.179     407.421
  H      -40.150    -391.835     411.460
  H      -47.352    -389.748     409.778
  H      -44.370    -398.809     412.482
  H      -44.578    -393.319     409.141
  H      -43.155    -393.026     412.647
  H      -41.429    -393.363     410.411
  H      -42.975    -398.529     414.309
  H      -42.663    -391.887     409.015
  H      -42.242    -397.011     414.604
  H      -43.067    -390.026     411.431
  H      -45.269    -389.650     410.263
  H      -43.893    -389.097     409.313
  P      -39.968    -391.178     408.767
  C      -37.422    -391.534     409.175
  O      -38.631    -390.968     409.627
  O      -39.836    -390.107     407.589
  O      -40.172    -392.558     408.247
  H      -40.315    -390.417     406.796
  H      -36.638    -391.297     409.864
  H      -37.181    -391.138     408.211
  H      -37.529    -392.597     409.107

 6  7  8  9  10  11  12  13  14  15  26  29  33  34 0
 6-311+G(2d,p)
 ****
 36  38  39  40  41 0
 6-311+G(2d,p)
 ****
 1  2  3  4  5  16  17  18  19  20  21  22  23  24  25 0
 3-21G
 ****
 27  28  30  31  32  35  37  42  43  44  45  46  47 0
 3-21G
 ****
 48  49 0
 3-21G
 ****


