%nproc=1
%NoSave
%Mem=1900MB
#P OB98/GEN NMR

erre ene a

0 1
  C      321.182    -109.868    -891.610
  O      322.262    -109.817    -890.680
  P      323.708    -109.459    -891.270
  C      325.527    -110.876    -892.490
  O      324.138    -110.720    -892.150
  C      325.919    -112.344    -892.500
  O      325.153    -113.057    -893.480
  C      327.383    -112.601    -892.860
  O      328.220    -112.331    -891.750
  C      327.331    -114.064    -893.250
  O      327.479    -114.908    -892.100
  C      325.924    -114.215    -893.870
  N      325.962    -114.370    -895.320
  C      326.137    -115.683    -895.770
  O      326.286    -116.604    -894.970
  N      326.193    -115.896    -897.140
  C      326.073    -114.899    -897.950
  N      326.142    -115.167    -899.280
  C      325.914    -113.503    -897.500
  C      325.859    -113.307    -896.180
  O      324.657    -109.565    -889.980
  O      323.809    -108.120    -891.940
  H      326.786    -114.600    -891.460
  H      325.444    -108.995    -890.080
  H      325.817    -112.707    -898.230
  H      325.738    -112.316    -895.760
  H      325.407    -115.076    -893.440
  H      328.141    -114.318    -893.950
  H      327.675    -111.981    -893.710
  H      325.689    -112.775    -891.510
  H      326.268    -116.137    -899.550
  H      326.132    -110.345    -891.740
  H      326.038    -114.471    -900.000
  H      325.716    -110.413    -893.470
  P      329.634    -111.649    -892.040
  C      331.952    -112.542    -892.730
  O      330.588    -112.864    -892.470
  O      330.148    -111.291    -890.580
  O      329.649    -110.453    -892.930
  H      330.994    -110.791    -890.610
  H      332.513    -113.460    -892.840
  H      332.363    -111.970    -891.890
  H      332.022    -111.962    -893.650
  H      320.278    -110.115    -891.094
  H      321.384    -110.613    -892.351
  H      321.073    -108.914    -892.083

 3  4  5  6  7  8  9  10  11  12  13  21  23  27  28  29  30  32 0
 6-311+G(2d,p)
 ****
 34  35 0
 6-311+G(2d,p)
 ****
 1  2  14  15  16  17  18  19  20  22  24  25  26 0
 3-21G
 ****
 31  33  36  37  38  39  40  41  42  43  44  45  46 0
 3-21G
 ****


