%nproc=1
%NoSave
%Mem=1900MB
#P OB98/GEN NMR

erre ene a

0 1
  C       11.406    -376.842     -30.175
  O       11.694    -376.293     -31.444
  P       13.029    -376.613     -32.257
  C       13.538    -374.066     -32.415
  O       13.421    -375.301     -33.109
  C       13.539    -372.844     -33.351
  O       14.711    -372.877     -34.190
  C       12.331    -372.919     -34.306
  O       11.062    -372.457     -33.882
  C       12.829    -372.325     -35.624
  O       12.450    -370.953     -35.777
  C       14.349    -372.455     -35.515
  N       16.899    -372.941     -39.873
  C       16.749    -371.818     -39.072
  N       17.173    -370.654     -39.600
  N       16.211    -371.855     -37.876
  C       15.749    -373.081     -37.526
  C       15.857    -374.258     -38.228
  C       16.492    -374.219     -39.526
  O       16.568    -375.170     -40.301
  N       15.207    -375.289     -37.595
  C       14.675    -374.726     -36.531
  N       14.939    -373.377     -36.467
  O       13.117    -377.955     -32.917
  O       14.129    -376.583     -31.077
  H       11.485    -370.905     -35.739
  H       14.811    -377.250     -31.295
  H       17.256    -372.839     -40.819
  H       14.058    -375.235     -35.799
  H       14.831    -371.483     -35.673
  H       12.401    -372.866     -36.477
  H       17.455    -370.566     -40.566
  H       12.166    -373.983     -34.523
  H       16.921    -369.796     -39.120
  H       13.594    -371.914     -32.790
  H       14.466    -374.098     -31.831
  H       12.710    -373.966     -31.702
  P        9.680    -373.261     -33.975
  C        8.622    -371.674     -35.683
  O        8.524    -372.233     -34.386
  O        9.327    -373.603     -32.447
  O        9.732    -374.516     -34.789
  H        8.716    -374.369     -32.414
  H        7.984    -370.791     -35.746
  H        8.280    -372.411     -36.423
  H        9.660    -371.393     -35.914
  H       10.458    -376.480     -29.836
  H       12.167    -376.553     -29.480
  H       11.375    -377.909     -30.247

 3  4  5  6  7  8  9  10  11  12  23  26  30  31 0
 6-311+G(2d,p)
 ****
 33  35  36  37  38 0
 6-311+G(2d,p)
 ****
 1  2  13  14  15  16  17  18  19  20  21  22  24  25 0
 3-21G
 ****
 27  28  29  32  34  39  40  41  42  43  44  45  46  47  48  49 0
 3-21G
 ****


