%nproc=1
%NoSave
%Mem=1900MB
#P OB98/GEN NMR

erre ene a

0 1
  C     -390.751     268.662      28.941
  O     -390.493     267.271      28.728
  P     -391.665     266.203      28.487
  C     -392.265     266.977      26.101
  O     -391.787     265.911      26.914
  C     -392.426     266.544      24.639
  O     -391.148     266.238      24.052
  C     -393.304     265.311      24.441
  O     -394.676     265.661      24.526
  C     -392.842     264.843      23.053
  O     -393.492     265.612      22.021
  C     -391.340     265.166      23.103
  N     -387.912     261.792      21.361
  C     -388.517     262.842      20.771
  N     -389.427     263.701      21.292
  C     -389.674     263.384      22.590
  C     -389.140     262.332      23.324
  C     -388.218     261.506      22.652
  N     -387.614     260.425      23.246
  N     -389.655     262.306      24.594
  C     -390.474     263.337      24.639
  N     -390.514     264.022      23.454
  O     -392.964     266.565      29.144
  O     -391.095     264.832      29.090
  H     -394.454     265.448      22.110
  H     -391.831     264.270      29.389
  H     -388.237     263.033      19.737
  H     -391.054     263.647      25.509
  H     -390.986     265.543      22.132
  H     -393.061     263.795      22.871
  H     -393.051     264.551      25.184
  H     -392.840     267.408      24.082
  H     -391.547     267.805      26.158
  H     -386.988     259.861      22.695
  H     -387.866     260.177      24.194
  H     -393.226     267.313      26.500
  P     -395.741     264.579      25.037
  C     -397.507     265.924      26.330
  O     -397.166     265.309      25.099
  O     -395.360     263.833      26.278
  O     -395.911     263.583      23.794
  H     -396.136     262.689      24.107
  H     -397.856     265.169      27.031
  H     -398.301     266.653      26.147
  H     -396.637     266.447      26.752
  H     -389.825     269.180      29.078
  H     -391.359     268.782      29.813
  H     -391.262     269.064      28.091

 3  4  5  6  7  8  9  10  11  12  22  25  29  30  31  32 0
 6-311+G(2d,p)
 ****
 33  36  37 0
 6-311+G(2d,p)
 ****
 1  2  13  14  15  16  17  18  19  20  21  23  24  26 0
 3-21G
 ****
 27  28  34  35  38  39  40  41  42  43  44  45  46  47  48 0
 3-21G
 ****


