%nproc=1
%NoSave
%Mem=1900MB
#P OB98/GEN NMR

erre ene a

0 1
  C      405.239    -249.896      96.834
  O      404.807    -251.230      96.996
  H      405.461    -249.726      95.777
  H      406.145    -249.709      97.416
  H      404.451    -249.201      97.140
  P      404.526    -251.767      98.479
  C      402.898    -250.933     100.306
  O      403.106    -251.172      98.922
  C      401.402    -250.954     100.644
  O      400.749    -249.847      99.960
  C      400.685    -252.243     100.210
  O      399.607    -252.462     101.128
  C      400.160    -251.849      98.846
  O      399.189    -252.755      98.384
  C      399.712    -250.412      99.128
  N      399.506    -249.640      97.912
  C      398.324    -249.892      97.212
  O      397.526    -250.736      97.624
  N      398.086    -249.207      96.049
  C      398.982    -248.391      95.589
  N      398.690    -247.753      94.423
  C      400.271    -248.140      96.266
  C      400.463    -248.787      97.414
  O      405.628    -251.557      99.464
  O      404.218    -253.325      98.275
  H      399.559    -253.663      98.318
  H      404.986    -253.853      98.562
  H      400.992    -247.466      95.830
  H      401.381    -248.670      97.982
  H      398.780    -250.400      99.710
  H      400.965    -251.854      98.105
  H      401.347    -253.114     100.192
  H      401.282    -250.775     101.721
  H      397.799    -247.963      93.989
  H      403.318    -249.949     100.538
  H      399.318    -247.113      93.961
  H      403.420    -251.687     100.902
  P      399.584    -253.677     102.173
  C      400.308    -254.141     104.606
  O      400.076    -253.154     103.605
  O      400.296    -254.903     101.696
  O      398.031    -253.994     102.407
  H      397.924    -254.944     102.601
  H      400.630    -253.665     105.508
  H      401.065    -254.818     104.270
  H      399.403    -254.681     104.791

 6  7  8  9  10  11  12  13  14  15  16  26  30  31  32  33  35 0
 6-311+G(2d,p)
 ****
 37  38 0
 6-311+G(2d,p)
 ****
 1  2  3  4  5  17  18  19  20  21  22  23  24  25 0
 3-21G
 ****
 27  28  29  34  36  39  40  41  42  43  44  45  46 0
 3-21G
 ****


