%nproc=1
%NoSave
%Mem=1900MB
#P OB98/GEN NMR

erre ene a

0 1
  C     -899.149     610.066    -239.238
  O     -897.969     609.812    -239.996
  P     -897.849     610.445    -241.459
  C     -895.679     611.843    -241.447
  O     -897.099     611.864    -241.359
  C     -895.059     612.403    -240.155
  O     -895.519     611.636    -239.025
  C     -893.519     612.351    -240.104
  O     -892.779     613.433    -240.625
  C     -893.279     612.334    -238.599
  O     -893.309     613.697    -238.088
  C     -894.469     611.567    -238.043
  N     -892.059     608.389    -234.814
  C     -892.189     609.733    -234.821
  N     -892.869     610.500    -235.716
  C     -893.419     609.743    -236.659
  C     -893.369     608.365    -236.790
  C     -892.649     607.681    -235.792
  N     -892.499     606.312    -235.783
  N     -894.069     607.934    -237.903
  C     -894.509     609.049    -238.458
  N     -894.169     610.164    -237.742
  O     -899.099     610.423    -242.281
  O     -896.729     609.514    -242.140
  H     -893.199     613.619    -237.122
  H     -896.959     609.376    -243.093
  H     -891.719     610.274    -234.000
  H     -895.089     609.083    -239.370
  H     -894.849     612.014    -237.112
  H     -892.299     611.933    -238.341
  H     -893.169     611.407    -240.544
  H     -895.399     613.447    -240.018
  H     -895.359     612.443    -242.300
  H     -891.929     605.899    -235.057
  H     -892.869     605.756    -236.558
  H     -895.369     610.797    -241.641
  P     -891.939     613.312    -241.991
  C     -893.149     615.219    -243.306
  O     -892.909     613.831    -243.149
  O     -891.359     611.952    -242.244
  O     -890.869     614.477    -241.852
  H     -891.229     615.377    -241.905
  H     -893.639     615.382    -244.275
  H     -892.219     615.784    -243.288
  H     -893.799     615.581    -242.500
  H     -899.075     609.577    -238.289
  H     -900.000     609.692    -239.767
  H     -899.257     611.120    -239.088

 3  4  5  6  7  8  9  10  11  12  22  25  29  30  31  32 0
 6-311+G(2d,p)
 ****
 33  36  37 0
 6-311+G(2d,p)
 ****
 1  2  13  14  15  16  17  18  19  20  21  23  24  26 0
 3-21G
 ****
 27  28  34  35  38  39  40  41  42  43  44  45  46  47  48 0
 3-21G
 ****


