%nproc=1
%NoSave
%Mem=1900MB
#P OB98/GEN NMR

erre ene a

0 1
  C     -899.570    -897.150    -893.896
  O     -898.150    -897.030    -893.826
  H     -899.890    -896.430    -894.646
  H     -900.000    -896.860    -892.916
  H     -899.880    -898.130    -894.176
  P     -897.320    -898.170    -893.036
  C     -895.030    -897.870    -894.156
  O     -896.190    -898.700    -893.976
  C     -894.970    -897.210    -895.516
  O     -896.190    -896.260    -895.666
  C     -893.670    -896.310    -895.726
  O     -893.260    -896.200    -897.106
  C     -894.150    -894.910    -895.176
  O     -893.390    -893.800    -895.726
  C     -895.660    -894.930    -895.686
  N     -897.640    -890.270    -895.066
  C     -896.640    -890.700    -895.936
  N     -896.070    -889.730    -896.756
  N     -896.160    -891.930    -895.996
  C     -896.790    -892.690    -895.106
  C     -897.810    -892.420    -894.126
  C     -898.300    -891.060    -894.096
  O     -899.150    -890.680    -893.376
  N     -898.120    -893.540    -893.366
  C     -897.290    -894.480    -893.836
  N     -896.510    -894.040    -894.886
  O     -898.360    -899.420    -893.006
  O     -896.900    -897.820    -891.616
  H     -893.630    -893.020    -895.176
  H     -898.140    -900.000    -892.266
  H     -897.990    -889.330    -895.086
  H     -897.330    -895.510    -893.416
  H     -895.630    -894.540    -896.716
  H     -894.060    -894.880    -894.086
  H     -896.290    -888.740    -896.576
  H     -892.830    -896.640    -895.096
  H     -895.160    -889.950    -897.156
  H     -895.060    -897.990    -896.326
  H     -894.090    -898.540    -894.006
  H     -894.970    -897.080    -893.316
  P     -892.190    -897.310    -897.696
  C     -893.470    -898.990    -899.276
  O     -892.930    -898.720    -897.966
  O     -891.220    -897.610    -896.396
  O     -891.430    -896.740    -898.786
  H     -890.370    -897.280    -896.586
  H     -893.922    -899.960    -899.283
  H     -892.683    -898.959    -900.000
  H     -894.206    -898.252    -899.518

 6  7  8  9  10  11  12  13  14  15  26  29  33  34 0
 6-311+G(2d,p)
 ****
 36  38  39  40  41 0
 6-311+G(2d,p)
 ****
 1  2  3  4  5  16  17  18  19  20  21  22  23  24  25 0
 3-21G
 ****
 27  28  30  31  32  35  37  42  43  44  45  46  47 0
 3-21G
 ****
 48  49 0
 3-21G
 ****


