%nproc=1
%NoSave
%Mem=1900MB
#P OB98/GEN NMR

erre ene a

0 1
  C      415.500     -11.452     137.181
  O      416.102     -11.201     138.434
  P      417.362     -12.068     138.916
  C      416.324     -14.249     139.796
  O      417.014     -13.618     138.715
  C      416.928     -15.620     140.088
  O      416.839     -16.474     138.926
  C      418.409     -15.589     140.443
  O      418.633     -15.076     141.744
  C      418.784     -17.055     140.255
  O      418.406     -17.828     141.397
  C      417.917     -17.440     139.034
  N      418.692     -17.507     137.804
  C      418.746     -18.759     137.183
  O      418.232     -19.743     137.714
  N      419.393     -18.862     135.973
  C      420.034     -17.838     135.495
  N      420.606     -17.986     134.269
  C      420.132     -16.551     136.202
  C      419.426     -16.445     137.330
  O      417.903     -11.711     140.259
  O      418.463     -11.807     137.775
  H      419.304     -11.558     138.202
  H      419.056     -17.628     142.098
  H      420.737     -15.747     135.794
  H      419.417     -15.523     137.902
  H      417.436     -18.407     139.206
  H      419.862     -17.188     140.105
  H      418.948     -14.974     139.712
  H      416.347     -16.077     140.902
  H      420.498     -18.879     133.805
  H      415.269     -14.356     139.524
  H      420.834     -17.188     133.671
  H      416.385     -13.607     140.683
  P      420.009     -14.296     141.988
  C      421.611     -16.045     143.024
  O      421.197     -15.360     141.857
  O      419.971     -13.956     143.554
  O      420.173     -13.051     141.174
  H      420.374     -13.089     143.715
  H      422.149     -16.948     142.723
  H      420.755     -16.335     143.646
  H      422.284     -15.407     143.597
  H      414.681     -10.778     137.037
  H      415.142     -12.460     137.153
  H      416.221     -11.308     136.404

 3  4  5  6  7  8  9  10  11  12  13  24  27  28  29  30  32 0
 6-311+G(2d,p)
 ****
 34  35 0
 6-311+G(2d,p)
 ****
 1  2  14  15  16  17  18  19  20  21  22  23  25  26 0
 3-21G
 ****
 31  33  36  37  38  39  40  41  42  43  44  45  46 0
 3-21G
 ****


