%nproc=1
%NoSave
%Mem=1900MB
#P OB98/GEN NMR

erre ene a

0 1
  C      -35.889     196.935     330.898
  O      -35.835     198.055     331.754
  P      -37.043     199.112     331.792
  C      -38.358     200.463     330.043
  O      -37.210     199.655     330.293
  C      -38.753     200.373     328.571
  O      -39.219     199.036     328.229
  C      -39.911     201.280     328.179
  O      -39.698     202.672     328.240
  C      -40.308     200.695     326.834
  O      -39.453     201.170     325.793
  C      -40.079     199.181     327.079
  N      -41.340     198.458     327.256
  C      -41.875     197.887     326.106
  O      -41.348     197.961     324.995
  N      -43.066     197.235     326.267
  C      -43.786     197.145     327.425
  O      -44.876     196.583     327.484
  C      -43.179     197.786     328.598
  C      -42.002     198.405     328.463
  O      -36.920     200.174     332.832
  O      -38.341     198.181     331.964
  H      -39.700     200.706     324.976
  H      -38.473     197.536     331.249
  H      -43.488     196.825     325.442
  H      -43.722     197.722     329.536
  H      -41.533     198.885     329.317
  H      -39.546     198.735     326.228
  H      -41.334     200.962     326.559
  H      -40.747     201.084     328.872
  H      -37.864     200.568     327.963
  H      -38.116     201.502     330.285
  H      -39.183     200.149     330.697
  P      -40.882     203.743     328.339
  C      -42.920     204.095     326.782
  O      -41.521     203.935     326.889
  O      -40.597     204.975     329.142
  O      -42.018     202.897     329.095
  H      -42.559     203.493     329.641
  H      -43.188     204.163     325.722
  H      -43.242     205.009     327.280
  H      -43.438     203.231     327.212
  H      -34.999     196.353     331.015
  H      -35.969     197.265     329.883
  H      -36.741     196.337     331.146

 3  4  5  6  7  8  9  10  11  12  13  23  28  29  30  31  32 0
 6-311+G(2d,p)
 ****
 33  34 0
 6-311+G(2d,p)
 ****
 1  2  14  15  16  17  18  19  20  21  22  24  25  26  27 0
 3-21G
 ****
 35  36  37  38  39  40  41  42  43  44  45 0
 3-21G
 ****


