%nproc=1
%NoSave
%Mem=1900MB
#P OB98/GEN NMR

erre ene a

0 1
  C       -2.013      26.421      19.585
  O       -1.852      26.643      18.197
  H       -1.024      26.347      20.045
  H       -2.558      25.491      19.772
  H       -2.547      27.260      20.039
  P       -3.150      26.532      17.259
  C       -1.725      25.938      15.187
  O       -2.746      25.508      16.086
  C       -1.468      24.884      14.106
  O       -0.903      23.696      14.697
  C       -2.728      24.415      13.397
  O       -3.319      25.390      12.563
  C       -2.294      23.081      12.804
  O       -1.657      23.206      11.535
  C       -1.270      22.584      13.855
  N       -1.785      21.461      14.630
  C       -1.135      20.247      14.441
  O       -0.196      20.092      13.659
  N       -1.627      19.188      15.155
  C       -2.714      19.218      15.979
  O       -3.133      18.224      16.560
  C       -3.377      20.525      16.119
  C       -2.890      21.572      15.448
  O       -3.707      27.832      16.761
  O       -4.183      25.685      18.138
  H       -2.340      23.501      10.900
  H       -5.103      25.772      17.790
  H       -1.162      18.302      15.039
  H       -4.244      20.585      16.763
  H       -3.363      22.547      15.534
  H       -0.348      22.254      13.359
  H       -3.142      22.407      12.672
  H       -3.480      24.178      14.160
  H       -0.740      25.290      13.395
  H       -0.811      26.086      15.770
  H       -2.013      26.891      14.731
  P       -4.884      25.443      12.249
  C       -4.714      27.462      10.621
  O       -5.083      26.099      10.794
  O       -5.779      25.886      13.362
  O       -5.203      23.887      11.966
  H       -6.107      23.708      12.292
  H       -4.902      27.757       9.610
  H       -3.673      27.580      10.840
  H       -5.290      28.074      11.283

 6  7  8  9  10  11  12  13  14  15  16  26  31  32  33  34  35 0
 6-311+G(2d,p)
 ****
 36  37 0
 6-311+G(2d,p)
 ****
 1  2  3  4  5  17  18  19  20  21  22  23  24  25 0
 3-21G
 ****
 27  28  29  30  38  39  40  41  42  43  44  45 0
 3-21G
 ****


