%nproc=1
%NoSave
%Mem=1900MB
#P OB98/GEN NMR

erre ene a

0 1
  C     -428.415    -666.391    -685.161
  O     -429.025    -667.367    -685.981
  H     -427.353    -666.622    -685.077
  H     -428.856    -666.410    -684.159
  H     -428.527    -665.395    -685.597
  P     -430.570    -667.196    -686.374
  C     -430.638    -666.492    -688.853
  O     -430.634    -666.054    -687.499
  C     -431.056    -665.345    -689.768
  O     -432.445    -665.003    -689.534
  C     -430.269    -664.060    -689.554
  O     -428.979    -664.159    -690.124
  C     -431.196    -663.047    -690.214
  O     -431.056    -663.078    -691.642
  C     -432.587    -663.589    -689.804
  N     -433.143    -662.885    -688.642
  C     -433.820    -661.701    -688.906
  O     -433.951    -661.237    -690.032
  N     -434.294    -661.034    -687.808
  C     -434.093    -661.382    -686.503
  O     -434.346    -660.646    -685.558
  C     -433.439    -662.679    -686.293
  C     -432.989    -663.355    -687.348
  O     -431.515    -667.013    -685.235
  O     -430.899    -668.528    -687.200
  H     -431.373    -669.154    -686.627
  H     -431.271    -663.991    -691.925
  H     -434.746    -660.150    -687.986
  H     -433.315    -663.023    -685.273
  H     -432.477    -664.305    -687.213
  H     -433.297    -663.487    -690.628
  H     -430.995    -662.027    -689.892
  H     -430.210    -663.829    -688.478
  H     -430.968    -665.687    -690.810
  H     -431.348    -667.320    -688.950
  H     -429.639    -666.850    -689.120
  P     -427.670    -663.756    -689.293
  C     -426.504    -666.043    -689.240
  O     -427.184    -665.053    -688.480
  O     -427.799    -662.522    -688.468
  O     -426.535    -663.589    -690.410
  H     -426.116    -662.707    -690.306
  H     -426.228    -666.856    -688.601
  H     -425.624    -665.617    -689.675
  H     -427.148    -666.401    -690.016

 6  7  8  9  10  11  12  13  14  15  16  27  31  32  33  34  35 0
 6-311+G(2d,p)
 ****
 36  37 0
 6-311+G(2d,p)
 ****
 1  2  3  4  5  17  18  19  20  21  22  23  24  25 0
 3-21G
 ****
 26  28  29  30  38  39  40  41  42  43  44  45 0
 3-21G
 ****


