%nproc=1
%NoSave
%Mem=1900MB
#P OB98/GEN NMR

erre ene a

0 1
  C      624.603     405.679    -848.741
  O      625.306     405.821    -847.526
  H      623.627     405.232    -848.529
  H      625.149     405.011    -849.417
  H      624.448     406.649    -849.215
  P      626.796     406.413    -847.539
  C      626.089     407.577    -845.361
  O      627.107     406.824    -846.015
  C      626.026     407.238    -843.865
  O      625.588     405.856    -843.708
  C      627.365     407.393    -843.142
  O      627.179     408.105    -841.922
  C      627.777     405.953    -842.830
  O      628.662     405.848    -841.722
  C      626.396     405.304    -842.653
  N      626.468     403.847    -842.714
  C      625.742     403.144    -841.746
  O      625.090     403.764    -840.899
  N      625.819     401.783    -841.719
  C      626.589     401.160    -842.557
  N      626.650     399.810    -842.460
  C      627.398     401.862    -843.583
  C      627.281     403.192    -843.613
  O      627.029     407.497    -848.542
  O      627.741     405.143    -847.765
  H      629.554     406.150    -842.011
  H      628.606     405.445    -848.127
  H      628.026     401.301    -844.256
  H      627.838     403.791    -844.325
  H      625.950     405.587    -841.693
  H      628.273     405.522    -843.711
  H      628.128     407.895    -843.735
  H      625.251     407.863    -843.410
  H      626.085     399.372    -841.737
  H      625.132     407.364    -845.847
  H      627.227     399.224    -843.035
  H      626.327     408.641    -845.472
  P      627.299     409.704    -842.007
  C      625.823     410.234    -839.935
  O      627.116     410.300    -840.527
  O      625.949     410.131    -842.764
  O      628.511     410.173    -842.741
  H      626.157     410.450    -843.665
  H      625.856     410.666    -838.957
  H      625.516     409.212    -839.863
  H      625.126     410.774    -840.540

 6  7  8  9  10  11  12  13  14  15  16  26  30  31  32  33  35 0
 6-311+G(2d,p)
 ****
 37  38 0
 6-311+G(2d,p)
 ****
 1  2  3  4  5  17  18  19  20  21  22  23  24  25 0
 3-21G
 ****
 27  28  29  34  36  39  40  41  42  43  44  45  46 0
 3-21G
 ****


