%nproc=1
%NoSave
%Mem=1900MB
#P OB98/GEN NMR

erre ene a

0 1
  C     -120.651    -810.885     273.979
  O     -120.672    -809.485     273.843
  H     -120.721    -811.340     272.988
  H     -121.505    -811.219     274.575
  H     -119.720    -811.217     274.447
  P     -120.418    -808.605     275.163
  C     -117.897    -808.430     274.545
  O     -118.859    -808.779     275.539
  C     -116.517    -808.940     274.960
  O     -116.394    -810.343     274.604
  C     -115.360    -808.185     274.283
  O     -114.298    -808.028     275.233
  C     -114.915    -809.125     273.172
  O     -113.560    -808.922     272.785
  C     -115.213    -810.498     273.803
  N     -115.390    -811.519     272.768
  C     -114.288    -812.349     272.504
  O     -113.240    -812.190     273.119
  N     -114.392    -813.299     271.525
  C     -115.473    -813.354     270.795
  N     -115.499    -814.286     269.805
  C     -116.625    -812.451     270.986
  C     -116.526    -811.571     271.986
  O     -121.158    -809.436     276.313
  O     -120.885    -807.191     275.092
  H     -113.307    -809.645     272.159
  H     -121.512    -808.850     277.005
  H     -117.490    -812.513     270.336
  H     -117.319    -810.873     272.204
  H     -114.401    -810.802     274.460
  H     -115.543    -808.962     272.286
  H     -115.653    -807.199     273.903
  H     -116.429    -808.875     276.053
  H     -114.682    -814.880     269.684
  H     -117.856    -807.334     274.451
  H     -116.266    -814.393     269.149
  H     -118.194    -808.860     273.580
  P     -114.521    -806.960     276.413
  C     -114.657    -808.752     278.292
  O     -115.301    -807.692     277.605
  O     -115.612    -805.964     275.788
  O     -113.271    -806.235     276.814
  H     -115.207    -805.109     275.576
  H     -115.307    -809.131     279.053
  H     -113.755    -808.391     278.740
  H     -114.423    -809.535     277.601

 6  7  8  9  10  11  12  13  14  15  16  26  30  31  32  33  35 0
 6-311+G(2d,p)
 ****
 37  38 0
 6-311+G(2d,p)
 ****
 1  2  3  4  5  17  18  19  20  21  22  23  24  25 0
 3-21G
 ****
 27  28  29  34  36  39  40  41  42  43  44  45  46 0
 3-21G
 ****


