%nproc=1
%NoSave
%Mem=1900MB
#P OB98/GEN NMR

erre ene a

0 1
  C      -64.927    -258.723     885.011
  O      -64.311    -257.696     884.255
  P      -64.361    -257.702     882.651
  C      -63.566    -259.367     880.831
  O      -63.568    -259.033     882.213
  C      -62.154    -259.750     880.392
  O      -61.726    -260.915     881.114
  C      -62.018    -260.092     878.912
  O      -62.021    -258.922     878.111
  C      -60.719    -260.881     878.917
  O      -59.592    -259.991     878.949
  C      -60.812    -261.648     880.255
  N      -61.246    -263.028     880.079
  C      -60.380    -263.881     879.405
  O      -59.298    -263.492     878.974
  N      -60.736    -265.212     879.234
  C      -61.876    -265.624     879.688
  N      -62.153    -266.952     879.557
  C      -62.859    -264.752     880.357
  C      -62.486    -263.477     880.517
  O      -63.894    -256.455     881.993
  O      -65.879    -258.079     882.289
  H      -59.765    -259.333     879.645
  H      -66.477    -257.292     882.231
  H      -63.808    -265.152     880.702
  H      -63.133    -262.780     881.026
  H      -59.855    -261.653     880.763
  H      -60.600    -261.531     878.047
  H      -62.841    -260.752     878.604
  H      -61.482    -258.922     880.656
  H      -61.388    -267.551     879.251
  H      -63.892    -258.492     880.260
  H      -62.867    -267.409     880.112
  H      -64.268    -260.193     880.664
  P      -62.491    -259.066     876.580
  C      -61.343    -259.878     874.403
  O      -61.182    -259.558     875.780
  O      -62.705    -257.544     876.122
  O      -63.712    -259.899     876.387
  H      -63.652    -257.330     876.114
  H      -60.342    -259.945     873.956
  H      -61.902    -259.084     873.884
  H      -61.848    -260.836     874.295
  H      -64.780    -258.535     886.054
  H      -64.491    -259.666     884.754
  H      -65.975    -258.744     884.796

 3  4  5  6  7  8  9  10  11  12  13  23  27  28  29  30  32 0
 6-311+G(2d,p)
 ****
 34  35 0
 6-311+G(2d,p)
 ****
 1  2  14  15  16  17  18  19  20  21  22  24  25  26 0
 3-21G
 ****
 31  33  36  37  38  39  40  41  42  43  44  45  46 0
 3-21G
 ****


