%nproc=1
%NoSave
%Mem=1900MB
#P OB98/GEN NMR

erre ene a

0 1
  C     1057.589    -968.950    -268.078
  O     1057.772    -967.551    -268.122
  H     1057.650    -969.281    -267.035
  H     1058.388    -969.444    -268.644
  H     1056.618    -969.240    -268.483
  P     1057.293    -966.755    -269.420
  C     1057.406    -964.612    -267.987
  O     1057.707    -965.214    -269.244
  C     1057.840    -963.137    -267.955
  O     1057.349    -962.459    -269.129
  C     1057.265    -962.391    -266.743
  O     1058.047    -962.486    -265.565
  C     1057.216    -960.955    -267.264
  O     1058.452    -960.271    -267.009
  C     1056.984    -961.129    -268.762
  N     1053.263    -957.678    -269.366
  C     1054.491    -957.518    -268.736
  N     1054.728    -956.314    -268.192
  N     1055.369    -958.478    -268.674
  C     1054.958    -959.657    -269.189
  C     1053.745    -959.931    -269.799
  C     1052.797    -958.850    -269.951
  O     1051.706    -958.919    -270.507
  N     1053.653    -961.250    -270.162
  C     1054.758    -961.787    -269.681
  N     1055.605    -960.854    -269.150
  O     1055.701    -966.702    -269.255
  O     1057.673    -967.374    -270.735
  H     1058.481    -960.037    -266.057
  H     1055.282    -966.701    -270.145
  H     1052.627    -956.893    -269.425
  H     1055.002    -962.843    -269.728
  H     1057.621    -960.446    -269.347
  H     1056.438    -960.384    -266.749
  H     1054.045    -955.571    -268.144
  H     1056.236    -962.716    -266.534
  H     1055.529    -956.230    -267.566
  H     1058.937    -963.081    -267.971
  H     1057.961    -965.181    -267.237
  H     1056.345    -964.701    -267.770
  P     1057.371    -962.566    -264.135
  C     1059.690    -962.784    -262.902
  O     1058.442    -962.129    -263.023
  O     1057.214    -964.146    -263.880
  O     1056.064    -961.850    -263.994
  H     1056.307    -964.442    -264.087
  H     1060.249    -962.341    -262.105
  H     1060.235    -962.685    -263.818
  H     1059.530    -963.821    -262.692

 6  7  8  9  10  11  12  13  14  15  26  29  33  34 0
 6-311+G(2d,p)
 ****
 36  38  39  40  41 0
 6-311+G(2d,p)
 ****
 1  2  3  4  5  16  17  18  19  20  21  22  23  24  25 0
 3-21G
 ****
 27  28  30  31  32  35  37  42  43  44  45  46  47 0
 3-21G
 ****
 48  49 0
 3-21G
 ****


