%nproc=1
%NoSave
%Mem=1900MB
#P OB98/GEN NMR

erre ene a

0 1
  C      -27.873      52.380      55.909
  O      -27.423      52.380      57.249
  H      -28.570      53.210      55.772
  H      -28.394      51.445      55.693
  H      -27.033      52.507      55.220
  P      -26.216      51.394      57.620
  C      -24.737      53.344      58.497
  O      -25.382      52.114      58.790
  C      -24.431      54.094      59.793
  O      -25.652      54.742      60.252
  C      -23.933      53.194      60.932
  O      -22.960      53.922      61.689
  C      -25.175      52.995      61.780
  O      -24.902      52.652      63.131
  C      -25.850      54.362      61.629
  N      -27.271      54.328      61.964
  C      -27.608      54.237      63.311
  O      -26.803      54.270      64.240
  N      -28.947      54.104      63.577
  C      -29.948      54.029      62.655
  O      -31.127      53.888      62.956
  C      -29.529      54.121      61.249
  C      -28.231      54.260      60.974
  O      -25.252      51.513      56.350
  O      -26.607      49.984      57.914
  H      -25.491      50.849      55.677
  H      -24.204      51.965      63.124
  H      -29.208      54.036      64.548
  H      -30.295      54.054      60.489
  H      -27.886      54.310      59.947
  H      -25.343      55.109      62.250
  H      -25.798      52.203      61.349
  H      -23.506      52.243      60.597
  H      -23.707      54.889      59.577
  H      -25.395      53.960      57.876
  H      -23.814      53.144      57.944
  P      -22.178      53.125      62.843
  C      -19.750      53.256      61.869
  O      -20.687      53.711      62.835
  O      -22.042      51.678      62.180
  O      -22.886      53.158      64.155
  H      -21.912      51.711      61.217
  H      -18.815      53.754      62.017
  H      -20.117      53.471      60.887
  H      -19.612      52.200      61.975

 6  7  8  9  10  11  12  13  14  15  16  27  31  32  33  34  35 0
 6-311+G(2d,p)
 ****
 36  37 0
 6-311+G(2d,p)
 ****
 1  2  3  4  5  17  18  19  20  21  22  23  24  25 0
 3-21G
 ****
 26  28  29  30  38  39  40  41  42  43  44  45 0
 3-21G
 ****


