%nproc=1
%NoSave
%Mem=1900MB
#P OB98/GEN NMR

erre ene a

0 1
  C     -134.748      70.078    -342.302
  O     -133.997      69.565    -341.220
  H     -135.772      70.262    -341.961
  H     -134.775      69.362    -343.128
  H     -134.316      71.023    -342.643
  P     -132.488      69.101    -341.489
  C     -133.028      66.579    -341.293
  O     -132.564      67.630    -342.127
  C     -132.787      65.212    -341.954
  O     -133.490      65.178    -343.230
  C     -131.301      64.917    -342.244
  O     -131.129      63.498    -342.169
  C     -131.177      65.398    -343.675
  O     -129.989      64.936    -344.273
  C     -132.506      64.903    -344.252
  N     -132.841      65.545    -345.516
  C     -132.499      64.844    -346.672
  O     -131.928      63.756    -346.597
  N     -132.777      65.407    -347.891
  C     -133.292      66.595    -347.949
  N     -133.528      67.106    -349.184
  C     -133.618      67.398    -346.746
  C     -133.375      66.812    -345.573
  O     -131.552      69.233    -340.336
  O     -132.020      70.004    -342.724
  H     -130.029      65.027    -345.253
  H     -131.423      70.708    -342.411
  H     -134.031      68.392    -346.851
  H     -133.578      67.319    -344.635
  H     -132.482      63.817    -344.406
  H     -131.133      66.494    -343.710
  H     -130.623      65.421    -341.548
  H     -133.228      64.436    -341.323
  H     -133.280      66.529    -349.982
  H     -134.100      66.731    -341.138
  H     -133.911      68.024    -349.355
  H     -132.520      66.613    -340.326
  P     -130.483      62.763    -340.900
  C     -128.437      61.746    -342.099
  O     -128.897      62.650    -341.096
  O     -131.137      61.473    -340.539
  O     -130.631      63.816    -339.698
  H     -130.736      63.327    -338.851
  H     -127.368      61.762    -342.131
  H     -128.827      62.041    -343.051
  H     -128.772      60.756    -341.868

 6  7  8  9  10  11  12  13  14  15  16  26  30  31  32  33  35 0
 6-311+G(2d,p)
 ****
 37  38 0
 6-311+G(2d,p)
 ****
 1  2  3  4  5  17  18  19  20  21  22  23  24  25 0
 3-21G
 ****
 27  28  29  34  36  39  40  41  42  43  44  45  46 0
 3-21G
 ****


