%nproc=1
%NoSave
%Mem=1900MB
#P OB98/GEN NMR

erre ene a

0 1
  C      -14.614     -21.977     -14.052
  O      -13.779     -20.833     -14.067
  P      -12.743     -20.627     -12.865
  C      -14.156     -18.632     -11.981
  O      -13.513     -19.861     -11.684
  C      -14.848     -18.078     -10.733
  O      -15.689     -19.116     -10.147
  C      -13.879     -17.604      -9.640
  O      -14.488     -16.485      -8.979
  C      -13.841     -18.792      -8.698
  O      -13.379     -18.462      -7.398
  C      -15.307     -19.233      -8.762
  N      -15.516     -20.589      -8.258
  C      -16.757     -20.881      -7.702
  O      -17.678     -20.070      -7.612
  N      -16.897     -22.140      -7.185
  C      -15.917     -23.083      -7.087
  O      -16.074     -24.150      -6.506
  C      -14.625     -22.720      -7.691
  C      -14.486     -21.511      -8.240
  O      -11.732     -19.526     -13.436
  O      -12.033     -21.867     -12.435
  H      -13.282     -19.294      -6.901
  H      -10.912     -19.949     -13.754
  H      -17.794     -22.373      -6.788
  H      -13.830     -23.453      -7.650
  H      -13.539     -21.209      -8.674
  H      -15.936     -18.534      -8.196
  H      -13.175     -19.560      -9.108
  H      -12.890     -17.331     -10.019
  H      -15.510     -17.258     -11.037
  H      -14.901     -18.796     -12.760
  H      -13.421     -17.916     -12.365
  P      -13.573     -15.197      -8.687
  C      -13.287     -15.986      -6.212
  O      -12.678     -15.550      -7.408
  O      -14.670     -14.176      -8.120
  O      -12.848     -14.690      -9.890
  H      -15.286     -14.596      -7.498
  H      -14.177     -16.588      -6.410
  H      -13.565     -15.118      -5.610
  H      -12.570     -16.591      -5.650
  H      -15.244     -21.970     -14.917
  H      -15.219     -21.965     -13.169
  H      -14.010     -22.860     -14.059

 3  4  5  6  7  8  9  10  11  12  13  23  28  29  30  31  32 0
 6-311+G(2d,p)
 ****
 33  34 0
 6-311+G(2d,p)
 ****
 1  2  14  15  16  17  18  19  20  21  22  24  25  26 0
 3-21G
 ****
 27  35  36  37  38  39  40  41  42  43  44  45 0
 3-21G
 ****


