%nproc=1
%NoSave
%Mem=1900MB
#P OB98/GEN NMR

erre ene a

0 1
  C      101.062    -227.408    -696.279
  O      102.071    -227.644    -695.291
  P      102.587    -226.356    -694.467
  C      104.488    -225.746    -696.143
  O      103.269    -225.343    -695.512
  C      105.515    -224.616    -696.177
  O      105.299    -223.812    -697.370
  C      105.473    -223.673    -694.972
  O      106.814    -223.277    -694.642
  C      104.761    -222.444    -695.521
  O      105.064    -221.267    -694.772
  C      105.294    -222.430    -696.962
  N      104.573    -217.818    -698.936
  C      105.599    -218.292    -698.125
  N      106.552    -217.402    -697.794
  N      105.673    -219.529    -697.705
  C      104.675    -220.320    -698.151
  C      103.607    -219.970    -698.959
  C      103.509    -218.590    -699.387
  O      102.594    -218.104    -700.056
  N      102.783    -221.054    -699.190
  C      103.363    -222.039    -698.525
  N      104.487    -221.642    -697.866
  O      103.806    -226.931    -693.611
  O      101.531    -225.750    -693.590
  H      106.027    -221.098    -694.876
  H      103.664    -226.759    -692.663
  H      104.554    -216.853    -699.219
  H      102.965    -223.061    -698.463
  H      106.328    -222.053    -697.000
  H      103.675    -222.597    -695.495
  H      106.597    -216.448    -698.140
  H      104.976    -224.075    -694.083
  H      107.342    -217.724    -697.242
  H      106.513    -225.062    -696.264
  H      104.267    -226.068    -697.170
  H      104.882    -226.607    -695.600
  P      107.567    -224.162    -693.525
  C      106.566    -222.981    -691.417
  O      106.606    -224.144    -692.239
  O      108.806    -223.240    -693.114
  O      108.004    -225.518    -694.014
  H      109.542    -223.794    -692.774
  H      107.082    -222.125    -691.900
  H      107.073    -223.194    -690.476
  H      105.535    -222.716    -691.240
  H      100.805    -228.332    -696.754
  H      101.433    -226.722    -697.011
  H      100.194    -226.994    -695.810

 3  4  5  6  7  8  9  10  11  12  23  26  30  31  33  0
 6-311+G(2d,p)
 ****
 35  36  37  38 0
 6-311+G(2d,p)
 ****
 1  2  13  14  15  16  17  18  19  20  21  22  24  25  27  28  29 0
 3-21G
 ****
 32  34  39  40  41  42  43  44  45  46  47  48  49 0
 3-21G
 ****


