%nproc=1
%NoSave
%Mem=1900MB
#P OB98/GEN NMR

erre ene a

0 1
  C      -82.189    -185.941     285.612
  O      -80.844    -186.275     285.319
  P      -79.921    -185.283     284.467
  C      -81.146    -185.088     282.225
  O      -80.065    -185.697     282.917
  C      -81.352    -185.737     280.851
  O      -82.528    -185.141     280.221
  C      -80.181    -185.573     279.879
  O      -80.135    -186.763     279.079
  C      -80.619    -184.398     279.011
  O      -79.933    -184.347     277.766
  C      -82.115    -184.675     278.916
  N      -86.798    -182.789     278.115
  C      -86.374    -184.032     278.414
  N      -85.105    -184.459     278.584
  C      -84.232    -183.444     278.420
  C      -84.514    -182.130     278.085
  C      -85.879    -181.802     277.943
  N      -86.332    -180.530     277.671
  N      -83.344    -181.408     277.952
  C      -82.379    -182.270     278.200
  N      -82.874    -183.496     278.549
  O      -78.511    -185.152     284.947
  O      -80.690    -183.881     284.540
  H      -79.011    -184.074     277.935
  H      -80.213    -183.271     285.144
  H      -87.152    -184.778     278.537
  H      -81.322    -182.061     278.142
  H      -82.341    -185.468     278.189
  H      -80.415    -183.461     279.548
  H      -79.214    -185.403     280.370
  H      -81.581    -186.803     281.008
  H      -80.910    -184.028     282.090
  H      -87.328    -180.381     277.725
  H      -85.702    -179.745     277.803
  H      -82.065    -185.167     282.822
  P      -78.867    -187.743     279.167
  C      -77.538    -186.247     277.565
  O      -78.040    -187.551     277.811
  O      -79.170    -189.157     279.534
  O      -77.924    -187.033     280.262
  H      -77.266    -187.680     280.596
  H      -78.342    -185.610     277.163
  H      -76.733    -186.299     276.829
  H      -77.151    -185.794     278.486
  H      -82.634    -186.726     286.186
  H      -82.732    -185.815     284.699
  H      -82.216    -185.030     286.172

 3  4  5  6  7  8  9  10  11  12  22  25  29  30  31  32 0
 6-311+G(2d,p)
 ****
 33  36  37 0
 6-311+G(2d,p)
 ****
 1  2  13  14  15  16  17  18  19  20  21  23  24  26 0
 3-21G
 ****
 27  28  34  35  38  39  40  41  42  43  44  45  46  47  48 0
 3-21G
 ****


