%nproc=1
%NoSave
%Mem=1900MB
#P OB98/GEN NMR

erre ene a

0 1
  C      470.617     346.932    -436.113
  O      469.708     348.030    -436.189
  P      468.419     347.903    -437.134
  C      466.704     348.090    -435.218
  O      467.197     348.663    -436.423
  C      466.055     349.164    -434.336
  O      467.039     349.951    -433.643
  C      465.200     350.150    -435.114
  O      463.967     349.558    -435.508
  C      465.076     351.292    -434.108
  O      464.040     351.019    -433.155
  C      466.467     351.253    -433.414
  N      467.348     352.320    -433.843
  C      466.917     353.619    -433.586
  O      465.815     353.832    -433.085
  N      467.735     354.677    -433.949
  C      468.879     354.434    -434.522
  N      469.640     355.511    -434.855
  C      469.368     353.073    -434.808
  C      468.555     352.072    -434.457
  O      468.100     346.527    -437.627
  O      468.773     348.893    -438.352
  H      463.204     351.040    -433.656
  H      468.346     348.560    -439.162
  H      470.325     352.927    -435.272
  H      468.844     351.047    -434.633
  H      466.339     351.342    -432.322
  H      464.842     352.240    -434.590
  H      465.756     350.491    -435.995
  H      465.434     348.645    -433.582
  H      469.276     356.432    -434.651
  H      467.512     347.600    -434.681
  H      470.570     355.429    -435.252
  H      465.972     347.303    -435.482
  P      463.113     350.324    -436.631
  C      463.310     348.462    -438.431
  O      462.462     349.210    -437.574
  O      464.247     350.978    -437.568
  O      462.183     351.363    -436.106
  H      463.931     351.827    -437.917
  H      462.772     347.564    -438.751
  H      464.216     348.136    -437.896
  H      463.585     349.052    -439.310
  H      471.416     347.176    -435.445
  H      471.014     346.730    -437.086
  H      470.102     346.067    -435.752

 3  4  5  6  7  8  9  10  11  12  13  23  27  28  29  30  32 0
 6-311+G(2d,p)
 ****
 34  35 0
 6-311+G(2d,p)
 ****
 1  2  14  15  16  17  18  19  20  21  22  24  25  26 0
 3-21G
 ****
 31  33  36  37  38  39  40  41  42  43  44  45  46 0
 3-21G
 ****


