%nproc=1
%NoSave
%Mem=1900MB
#P OB98/GEN NMR

erre ene a

0 1
  C     -893.935    -447.797     -66.304
  O     -893.400    -446.596     -65.797
  H     -894.683    -447.544     -67.067
  H     -894.434    -448.360     -65.508
  H     -893.150    -448.402     -66.767
  P     -892.418    -446.659     -64.520
  C     -894.035    -446.279     -62.565
  O     -893.322    -447.251     -63.326
  C     -894.912    -446.932     -61.490
  O     -894.072    -447.683     -60.572
  C     -895.718    -445.931     -60.662
  O     -897.078    -446.394     -60.543
  C     -895.038    -445.956     -59.292
  O     -895.918    -445.551     -58.252
  C     -894.548    -447.407     -59.249
  N     -893.510    -447.613     -58.243
  C     -893.923    -447.996     -56.965
  O     -895.134    -448.095     -56.709
  N     -892.994    -448.204     -55.983
  C     -891.727    -448.008     -56.247
  N     -890.851    -448.225     -55.225
  C     -891.240    -447.571     -57.563
  C     -892.167    -447.403     -58.519
  O     -891.718    -445.378     -64.206
  O     -891.414    -447.871     -64.846
  H     -896.220    -444.629     -58.438
  H     -890.598    -447.771     -64.293
  H     -890.177    -447.422     -57.738
  H     -891.895    -447.090     -59.522
  H     -895.367    -448.103     -59.025
  H     -894.187    -445.269     -59.303
  H     -895.735    -444.922     -61.077
  H     -895.555    -447.676     -61.986
  H     -891.238    -448.532     -54.342
  H     -894.653    -445.683     -63.247
  H     -889.849    -448.099     -55.307
  H     -893.311    -445.619     -62.079
  P     -898.218    -445.340     -60.952
  C     -898.755    -444.186     -58.694
  O     -898.119    -444.079     -59.959
  O     -899.576    -446.076     -60.522
  O     -898.218    -444.990     -62.411
  H     -900.000    -446.487     -61.298
  H     -898.608    -443.280     -58.143
  H     -898.333    -445.006     -58.151
  H     -899.803    -444.352     -58.834

 6  7  8  9  10  11  12  13  14  15  16  26  30  31  32  33  35 0
 6-311+G(2d,p)
 ****
 37  38 0
 6-311+G(2d,p)
 ****
 1  2  3  4  5  17  18  19  20  21  22  23  24  25 0
 3-21G
 ****
 27  28  29  34  36  39  40  41  42  43  44  45  46 0
 3-21G
 ****


