%nproc=1
%NoSave
%Mem=1900MB
#P OB98/GEN NMR

erre ene a

0 1
  C     -115.350    -567.184    -148.254
  O     -116.233    -568.286    -148.331
  P     -115.857    -569.548    -149.243
  C     -115.614    -571.200    -147.294
  O     -114.951    -570.536    -148.360
  C     -115.558    -572.715    -147.495
  O     -114.208    -573.135    -147.794
  C     -115.971    -573.522    -146.271
  O     -117.380    -573.518    -146.121
  C     -115.364    -574.880    -146.594
  O     -116.216    -575.619    -147.484
  C     -114.060    -574.484    -147.302
  N     -110.762    -577.672    -145.077
  C     -111.904    -577.895    -145.760
  N     -112.753    -576.988    -146.286
  C     -112.324    -575.735    -146.032
  C     -111.194    -575.361    -145.322
  C     -110.369    -576.393    -144.850
  N     -109.176    -576.185    -144.208
  N     -111.115    -573.980    -145.247
  C     -112.178    -573.540    -145.892
  N     -112.896    -574.564    -146.437
  O     -115.301    -569.221    -150.592
  O     -117.233    -570.351    -149.375
  H     -115.742    -576.438    -147.726
  H     -117.492    -570.402    -150.317
  H     -112.168    -578.938    -145.903
  H     -112.459    -572.498    -146.004
  H     -113.863    -575.116    -148.177
  H     -115.217    -575.498    -145.703
  H     -115.490    -573.119    -145.372
  H     -116.188    -572.965    -148.356
  H     -116.655    -570.870    -147.272
  H     -108.596    -576.988    -144.038
  H     -108.729    -575.268    -144.297
  H     -115.135    -570.928    -146.342
  P     -118.035    -574.056    -144.769
  C     -118.006    -571.655    -143.861
  O     -117.662    -573.006    -143.615
  O     -117.767    -575.492    -144.437
  O     -119.603    -573.799    -144.982
  H     -120.109    -574.493    -144.509
  H     -117.281    -571.210    -144.549
  H     -117.982    -571.109    -142.915
  H     -119.008    -571.582    -144.289
  H     -115.763    -566.441    -147.604
  H     -115.214    -566.767    -149.230
  H     -114.406    -567.510    -147.870

 3  4  5  6  7  8  9  10  11  12  22  25  29  30  31  32 0
 6-311+G(2d,p)
 ****
 33  36  37 0
 6-311+G(2d,p)
 ****
 1  2  13  14  15  16  17  18  19  20  21  23  24  26 0
 3-21G
 ****
 27  28  34  35  38  39  40  41  42  43  44  45  46  47  48 0
 3-21G
 ****


