%nproc=1
%NoSave
%Mem=1900MB
#P OB98/GEN NMR

erre ene a

0 1
  C       88.291     -34.429      22.498
  O       89.550     -33.891      22.149
  H       87.944     -33.974      23.429
  H       87.576     -34.195      21.705
  H       88.349     -35.514      22.612
  P       90.816     -34.364      23.013
  C       91.920     -35.468      20.940
  O       91.425     -35.646      22.258
  C       93.365     -35.953      20.842
  O       94.221     -34.998      21.530
  C       93.610     -37.337      21.464
  O       94.543     -38.045      20.641
  C       94.272     -37.010      22.790
  O       95.087     -38.070      23.275
  C       95.053     -35.750      22.431
  N       98.779     -34.626      25.702
  C       98.795     -35.186      24.474
  N       97.756     -35.401      23.643
  C       96.620     -34.910      24.166
  C       96.448     -34.308      25.400
  C       97.598     -34.187      26.198
  N       97.581     -33.681      27.477
  N       95.118     -33.990      25.600
  C       94.498     -34.417      24.518
  N       95.364     -34.982      23.624
  O       90.127     -34.989      24.317
  O       91.796     -33.295      23.357
  H       95.865     -38.163      22.692
  H       89.980     -34.287      24.977
  H       99.768     -35.514      24.116
  H       93.432     -34.371      24.345
  H       96.001     -35.971      21.925
  H       93.502     -36.796      23.540
  H       92.700     -37.934      21.587
  H       93.663     -35.947      19.787
  H       91.886     -34.404      20.686
  H       98.434     -33.733      28.013
  H       96.694     -33.452      27.901
  H       91.286     -36.018      20.237
  P       94.155     -39.536      20.200
  C       94.611     -39.056      17.682
  O       93.690     -39.509      18.667
  O       92.793     -39.811      20.994
  O       95.198     -40.554      20.527
  H       92.726     -40.752      21.234
  H       94.151     -39.099      16.717
  H       95.479     -39.681      17.691
  H       94.896     -38.047      17.897

 6  7  8  9  10  11  12  13  14  15  25  28  32  33  34  35 0
 6-311+G(2d,p)
 ****
 36  39  40 0
 6-311+G(2d,p)
 ****
 1  2  3  4  5  16  17  18  19  20  21  22  23  24 0
 3-21G
 ****
 26  27  29  30  31  37  38  41  42  43  44  45  46  47 0
 3-21G
 ****
 48 0
 3-21G
 ****


