%nproc=1
%NoSave
%Mem=1900MB
#P OB98/GEN NMR

erre ene a

0 1
  C      -97.600     525.873     268.252
  O      -97.960     527.067     267.594
  H      -96.607     525.574     267.910
  H      -98.314     525.084     268.003
  H      -97.565     526.017     269.337
  P      -99.213     527.906     268.137
  C     -100.807     527.709     266.113
  O      -99.937     528.554     266.859
  C     -100.683     527.994     264.606
  O      -99.577     527.215     264.070
  C     -101.946     527.574     263.849
  O     -102.144     528.353     262.665
  C     -101.632     526.139     263.447
  O     -102.396     525.693     262.324
  C     -100.132     526.216     263.190
  N      -99.566     521.374     261.678
  C     -100.538     522.298     261.326
  N     -101.482     521.861     260.457
  N     -100.592     523.511     261.797
  C      -99.627     523.776     262.717
  C      -98.628     522.948     263.166
  C      -98.558     521.611     262.605
  O      -97.730     520.750     262.899
  N      -97.842     523.571     264.102
  C      -98.374     524.770     264.232
  N      -99.443     524.959     263.388
  O      -98.539     529.180     268.833
  O     -100.116     527.179     269.082
  H     -102.244     526.330     261.605
  H      -99.147     529.573     269.482
  H      -99.559     520.464     261.265
  H      -98.011     525.544     264.893
  H      -99.934     526.541     262.160
  H     -101.884     525.492     264.286
  H     -101.590     520.883     260.223
  H     -102.843     527.624     264.463
  H     -102.358     522.396     260.429
  H     -100.429     529.052     264.446
  H     -101.825     527.904     266.455
  H     -100.585     526.660     266.324
  P     -103.645     528.747     262.266
  C     -103.859     527.615     259.874
  O     -103.785     528.785     260.669
  O     -103.759     530.285     262.690
  O     -104.704     527.912     262.907
  H     -104.417     530.391     263.402
  H     -103.948     527.889     258.844
  H     -104.713     527.039     260.165
  H     -102.972     527.033     260.013

 6  7  8  9  10  11  12  13  14  15  26  29  33  34 0
 6-311+G(2d,p)
 ****
 36  38  39  40  41 0
 6-311+G(2d,p)
 ****
 1  2  3  4  5  16  17  18  19  20  21  22  23  24  25 0
 3-21G
 ****
 27  28  30  31  32  35  37  42  43  44  45  46  47 0
 3-21G
 ****
 48  49 0
 3-21G
 ****


