%nproc=1
%NoSave
%Mem=1900MB
#P OB98/GEN NMR

erre ene a

0 1
  C       19.874     382.559     265.929
  O       20.404     383.834     266.251
  P       19.588     385.167     265.920
  C       21.324     385.969     264.119
  O       19.989     385.655     264.454
  C       21.649     385.343     262.751
  O       21.142     383.994     262.687
  C       21.025     386.140     261.610
  O       21.952     387.074     261.083
  C       20.638     385.056     260.625
  O       21.773     384.654     259.837
  C       20.213     383.909     261.574
  N       18.840     383.933     262.126
  C       18.055     382.786     262.061
  O       18.443     381.716     261.594
  N       16.772     382.914     262.539
  C       16.242     384.040     263.103
  O       15.044     384.215     263.298
  C       17.198     385.116     263.385
  C       18.426     385.023     262.877
  O       20.276     386.257     266.871
  O       18.111     385.088     266.135
  H       21.541     383.802     259.416
  H       19.746     386.393     267.677
  H       16.154     382.127     262.370
  H       16.856     385.966     263.954
  H       19.138     385.830     263.035
  H       20.351     382.929     261.100
  H       19.888     385.411     259.916
  H       20.112     386.645     261.951
  H       22.742     385.301     262.634
  H       22.005     385.581     264.886
  H       21.457     387.051     264.080
  P       21.628     388.640     261.157
  C       21.222     388.476     258.628
  O       20.716     388.936     259.867
  O       22.804     389.536     261.328
  O       20.608     388.745     262.391
  H       21.094     389.018     263.196
  H       20.438     388.582     257.869
  H       21.511     387.425     258.695
  H       22.084     389.084     258.330
  H       20.566     381.799     266.228
  H       19.711     382.497     264.873
  H       18.946     382.418     266.443

 3  4  5  6  7  8  9  10  11  12  13  23  28  29  30  31  32 0
 6-311+G(2d,p)
 ****
 33  34 0
 6-311+G(2d,p)
 ****
 1  2  14  15  16  17  18  19  20  21  22  24  25  26  27 0
 3-21G
 ****
 35  36  37  38  39  40  41  42  43  44  45 0
 3-21G
 ****


