%nproc=1
%NoSave
%Mem=1900MB
#P OB98/GEN NMR

erre ene a

0 1
  C     -433.199    -245.333    -171.295
  O     -431.887    -245.012    -171.722
  P     -431.179    -243.725    -171.074
  C     -430.441    -242.858    -173.414
  O     -431.157    -242.595    -172.213
  C     -430.595    -241.683    -174.383
  O     -431.950    -241.590    -174.864
  C     -430.292    -240.323    -173.773
  O     -428.896    -240.052    -173.720
  C     -430.973    -239.396    -174.766
  O     -430.135    -239.214    -175.925
  C     -432.236    -240.197    -175.135
  N     -436.020    -236.842    -174.897
  C     -435.119    -237.088    -175.919
  N     -435.205    -236.293    -177.003
  N     -434.219    -238.042    -175.881
  C     -434.240    -238.753    -174.727
  C     -435.086    -238.604    -173.651
  C     -436.071    -237.546    -173.698
  O     -436.855    -237.246    -172.808
  N     -434.811    -239.527    -172.671
  C     -433.809    -240.228    -173.152
  N     -433.400    -239.775    -174.375
  O     -429.644    -244.161    -170.963
  O     -431.744    -243.305    -169.756
  H     -429.352    -238.707    -175.620
  H     -429.176    -243.578    -170.343
  H     -436.691    -236.099    -174.966
  H     -433.343    -241.064    -172.644
  H     -432.475    -240.111    -176.198
  H     -431.170    -238.401    -174.355
  H     -435.831    -235.504    -177.065
  H     -430.759    -240.214    -172.789
  H     -434.515    -236.410    -177.738
  H     -429.940    -241.876    -175.248
  H     -430.824    -243.766    -173.873
  H     -429.381    -243.008    -173.173
  P     -428.449    -238.743    -172.910
  C     -426.924    -237.727    -174.754
  O     -428.132    -237.636    -174.029
  O     -427.000    -239.143    -172.351
  O     -429.383    -238.330    -171.823
  H     -426.797    -238.641    -171.541
  H     -426.989    -237.079    -175.632
  H     -426.738    -238.751    -175.091
  H     -426.090    -237.389    -174.137
  H     -433.537    -246.208    -171.810
  H     -433.855    -244.516    -171.512
  H     -433.196    -245.518    -170.241

 3  4  5  6  7  8  9  10  11  12  23  26  30  31 0
 6-311+G(2d,p)
 ****
 33  35  36  37  38 0
 6-311+G(2d,p)
 ****
 1  2  13  14  15  16  17  18  19  20  21  22  24  25 0
 3-21G
 ****
 27  28  29  32  34  39  40  41  42  43  44  45  46  47  48  49 0
 3-21G
 ****


