%nproc=1
%NoSave
%Mem=1900MB
#P OB98/GEN NMR

erre ene a

0 1
  C     -238.945      14.464     -61.817
  O     -237.743      14.038     -62.468
  P     -237.690      12.522     -62.999
  C     -238.163      12.662     -65.568
  O     -237.200      12.609     -64.529
  C     -237.484      12.833     -66.935
  O     -236.603      14.000     -66.902
  C     -236.642      11.631     -67.379
  O     -236.810      11.508     -68.804
  C     -235.225      12.057     -67.049
  O     -234.261      11.341     -67.810
  C     -235.308      13.561     -67.359
  N     -234.225      14.322     -66.731
  C     -233.572      15.264     -67.526
  O     -233.813      15.411     -68.721
  N     -232.602      15.997     -66.900
  C     -232.165      15.828     -65.615
  O     -231.290      16.514     -65.107
  C     -232.814      14.736     -64.860
  C     -233.799      14.048     -65.446
  O     -239.245      12.163     -63.095
  O     -236.885      11.623     -62.117
  H     -239.795      12.912     -63.394
  H     -233.404      11.819     -67.769
  H     -232.134      16.705     -67.449
  H     -232.455      14.534     -63.858
  H     -234.281      13.228     -64.925
  H     -235.263      13.727     -68.441
  H     -235.019      11.892     -65.983
  H     -236.944      10.692     -66.895
  H     -238.263      13.039     -67.680
  H     -238.840      13.507     -65.404
  H     -238.776      11.750     -65.545
  P     -237.466      10.152     -69.378
  C     -239.733      11.199     -70.178
  O     -238.510      10.578     -70.516
  O     -238.415       9.757     -68.143
  O     -236.485       9.073     -69.722
  H     -238.943      10.503     -67.815
  H     -240.176      11.620     -71.083
  H     -239.578      12.011     -69.458
  H     -240.419      10.459     -69.751
  H     -238.845      15.486     -61.516
  H     -239.119      13.854     -60.955
  H     -239.769      14.370     -62.493

 3  4  5  6  7  8  9  10  11  12  13  24  28  29  30  31  32 0
 6-311+G(2d,p)
 ****
 33  34 0
 6-311+G(2d,p)
 ****
 1  2  14  15  16  17  18  19  20  21  22  23  25  26  27 0
 3-21G
 ****
 35  36  37  38  39  40  41  42  43  44  45 0
 3-21G
 ****


