%nproc=1
%NoSave
%Mem=1900MB
#P OB98/GEN NMR

erre ene a

0 1
  C     -286.294     283.567     232.400
  O     -285.215     283.849     231.533
  H     -287.211     283.967     231.960
  H     -286.127     284.052     233.367
  H     -286.416     282.490     232.546
  P     -283.828     283.077     231.747
  C     -283.713     282.317     229.282
  O     -283.080     283.040     230.328
  C     -282.966     282.496     227.955
  O     -283.215     283.826     227.434
  C     -281.449     282.377     228.171
  O     -280.778     281.894     227.010
  C     -281.034     283.817     228.422
  O     -279.649     284.052     228.171
  C     -281.981     284.566     227.478
  N     -281.033     289.511     226.680
  C     -280.438     288.407     226.106
  N     -279.448     288.645     225.216
  N     -280.775     287.172     226.388
  C     -281.728     287.081     227.351
  C     -282.372     288.103     228.011
  C     -282.018     289.462     227.659
  O     -282.498     290.482     228.152
  N     -283.266     287.619     228.937
  C     -283.159     286.309     228.842
  N     -282.248     285.932     227.880
  O     -284.269     281.549     231.945
  O     -282.987     283.557     232.891
  H     -279.461     284.978     228.416
  H     -283.598     281.062     232.454
  H     -280.747     290.440     226.416
  H     -283.717     285.590     229.436
  H     -281.564     284.595     226.463
  H     -281.214     284.047     229.479
  H     -279.039     289.558     225.101
  H     -281.208     281.734     229.017
  H     -278.815     287.868     225.013
  H     -283.344     281.784     227.208
  H     -284.736     282.704     229.193
  H     -283.785     281.257     229.544
  P     -279.548     280.890     227.229
  C     -280.595     278.995     225.745
  O     -279.512     279.874     225.990
  O     -280.023     279.986     228.467
  O     -278.250     281.575     227.500
  H     -279.540     280.247     229.277
  H     -280.384     278.401     224.880
  H     -281.486     279.564     225.578
  H     -280.734     278.355     226.591

 6  7  8  9  10  11  12  13  14  15  26  29  33  34 0
 6-311+G(2d,p)
 ****
 36  38  39  40  41 0
 6-311+G(2d,p)
 ****
 1  2  3  4  5  16  17  18  19  20  21  22  23  24  25 0
 3-21G
 ****
 27  28  30  31  32  35  37  42  43  44  45  46  47 0
 3-21G
 ****
 48  49 0
 3-21G
 ****


