%nproc=1
%NoSave
%Mem=1900MB
#P OB98/GEN NMR

erre ene a

0 1
  C      283.999    -502.546    -265.121
  O      282.782    -502.863    -264.473
  P      281.560    -501.829    -264.521
  C      280.312    -502.930    -266.477
  O      281.016    -501.777    -266.030
  C      278.809    -502.650    -266.518
  O      278.304    -502.415    -265.188
  C      278.432    -501.405    -267.317
  O      278.492    -501.672    -268.707
  C      277.032    -501.130    -266.782
  O      276.061    -501.961    -267.429
  C      277.175    -501.527    -265.302
  N      275.689    -499.386    -260.920
  C      275.216    -500.446    -261.602
  N      275.641    -500.934    -262.798
  C      276.651    -500.182    -263.271
  C      277.207    -499.054    -262.707
  C      276.701    -498.664    -261.446
  N      277.221    -497.623    -260.704
  N      278.203    -498.542    -263.516
  C      278.228    -499.347    -264.567
  N      277.354    -500.390    -264.424
  O      281.831    -500.500    -263.898
  O      280.392    -502.592    -263.744
  H      276.179    -502.867    -267.082
  H      280.129    -502.068    -262.963
  H      274.394    -500.984    -261.142
  H      278.881    -499.230    -265.426
  H      276.298    -502.079    -264.941
  H      276.725    -500.087    -266.932
  H      279.091    -500.583    -267.048
  H      278.313    -503.538    -266.915
  H      280.513    -503.751    -265.786
  H      276.876    -497.525    -259.765
  H      278.147    -497.275    -260.940
  H      280.670    -503.212    -267.468
  P      278.459    -500.460    -269.746
  C      280.847    -499.921    -268.984
  O      279.563    -499.398    -269.283
  O      277.104    -499.881    -270.024
  O      279.096    -501.073    -271.075
  H      278.691    -500.659    -271.864
  H      280.831    -500.404    -268.008
  H      281.564    -499.101    -268.972
  H      281.148    -500.650    -269.753
  H      284.695    -503.347    -264.984
  H      284.402    -501.648    -264.703
  H      283.820    -502.404    -266.166

 3  4  5  6  7  8  9  10  11  12  22  25  29  30  31  32 0
 6-311+G(2d,p)
 ****
 33  36  37 0
 6-311+G(2d,p)
 ****
 1  2  13  14  15  16  17  18  19  20  21  23  24  26 0
 3-21G
 ****
 27  28  34  35  38  39  40  41  42  43  44  45  46  47  48 0
 3-21G
 ****


