%nproc=1
%NoSave
%Mem=1900MB
#P OB98/GEN NMR

erre ene a

0 1
  C     -150.321    -188.220      56.968
  O     -151.501    -187.471      56.756
  P     -152.857    -187.830      57.525
  C     -154.535    -189.765      57.628
  O     -153.318    -189.294      57.065
  C     -154.309    -191.005      58.490
  O     -153.672    -190.617      59.735
  C     -155.593    -191.772      58.837
  O     -155.276    -193.167      58.804
  C     -155.885    -191.324      60.256
  O     -156.711    -192.245      60.955
  C     -154.463    -191.171      60.807
  N     -154.413    -190.332      61.993
  C     -154.872    -190.895      63.186
  O     -155.412    -192.003      63.178
  N     -154.717    -190.183      64.348
  C     -154.320    -188.949      64.294
  N     -154.117    -188.301      65.474
  C     -154.067    -188.243      63.021
  C     -154.089    -188.996      61.925
  O     -153.926    -186.791      57.441
  O     -152.400    -188.058      59.044
  H     -152.945    -187.495      59.628
  H     -157.184    -191.768      61.668
  H     -153.863    -187.183      63.019
  H     -153.888    -188.577      60.946
  H     -154.036    -192.153      61.050
  H     -156.395    -190.353      60.238
  H     -156.409    -191.570      58.137
  H     -153.608    -191.666      57.960
  H     -154.262    -188.829      66.325
  H     -155.212    -190.018      56.810
  H     -153.522    -187.477      65.542
  H     -155.006    -188.967      58.216
  P     -156.244    -194.150      57.981
  C     -158.723    -194.893      58.168
  O     -157.611    -194.297      58.802
  O     -155.547    -195.577      58.235
  O     -156.358    -193.897      56.513
  H     -155.779    -196.177      57.502
  H     -159.578    -194.846      58.848
  H     -158.514    -195.942      57.941
  H     -158.976    -194.357      57.250
  H     -149.533    -187.822      56.364
  H     -150.494    -189.242      56.701
  H     -150.043    -188.163      58.000

 3  4  5  6  7  8  9  10  11  12  13  24  27  28  29  30  32 0
 6-311+G(2d,p)
 ****
 34  35 0
 6-311+G(2d,p)
 ****
 1  2  14  15  16  17  18  19  20  21  22  23  25  26 0
 3-21G
 ****
 31  33  36  37  38  39  40  41  42  43  44  45  46 0
 3-21G
 ****


