%nproc=1
%NoSave
%Mem=1900MB
#P OB98/GEN NMR

erre ene a

0 1
  C      -40.344     151.840     300.163
  O      -39.078     151.393     299.728
  H      -41.066     151.037     300.010
  H      -40.651     152.708     299.578
  H      -40.326     152.099     301.224
  P      -37.779     152.238     300.131
  C      -36.568     151.631     297.931
  O      -36.535     151.590     299.350
  C      -35.458     150.756     297.335
  O      -34.178     151.184     297.882
  C      -35.636     149.284     297.716
  O      -35.070     148.407     296.742
  C      -34.834     149.171     299.003
  O      -34.416     147.834     299.286
  C      -33.680     150.132     298.726
  N      -31.930     149.260     303.439
  C      -32.621     148.417     302.591
  N      -32.873     147.165     303.064
  N      -33.043     148.761     301.402
  C      -32.782     150.054     301.096
  C      -32.126     150.998     301.856
  C      -31.638     150.588     303.155
  O      -31.043     151.305     303.956
  N      -32.063     152.207     301.213
  C      -32.680     152.001     300.064
  N      -33.110     150.705     299.938
  O      -37.499     151.805     301.646
  O      -37.911     153.727     299.998
  H      -33.947     147.499     298.498
  H      -36.974     152.485     302.102
  H      -31.605     148.932     304.330
  H      -32.821     152.746     299.293
  H      -32.872     149.626     298.190
  H      -35.468     149.490     299.834
  H      -32.740     146.931     304.032
  H      -36.676     149.016     297.879
  H      -33.628     146.653     302.595
  H      -35.400     150.907     296.249
  H      -36.438     152.677     297.638
  H      -37.548     151.311     297.565
  P      -36.031     147.822     295.599
  C      -35.289     145.305     295.260
  O      -35.286     146.642     294.814
  O      -36.111     148.999     294.523
  O      -37.391     147.410     296.081
  H      -37.024     149.346     294.464
  H      -34.729     144.700     294.577
  H      -36.296     144.948     295.310
  H      -34.843     145.252     296.231

 6  7  8  9  10  11  12  13  14  15  26  29  33  34 0
 6-311+G(2d,p)
 ****
 36  38  39  40  41 0
 6-311+G(2d,p)
 ****
 1  2  3  4  5  16  17  18  19  20  21  22  23  24  25 0
 3-21G
 ****
 27  28  30  31  32  35  37  42  43  44  45  46  47 0
 3-21G
 ****
 48  49 0
 3-21G
 ****


