%nproc=1
%NoSave
%Mem=1900MB
#P OB98/GEN NMR

erre ene a

0 1
  C       70.292     429.368      53.802
  O       69.304     429.232      52.806
  H       70.071     430.257      54.396
  H       71.271     429.494      53.332
  H       70.315     428.499      54.466
  P       69.113     427.810      52.101
  C       71.200     428.086      50.608
  O       69.794     427.876      50.648
  C       71.694     428.337      49.184
  O       71.534     427.139      48.395
  C       70.905     429.441      48.474
  O       71.391     430.753      48.703
  C       71.059     429.046      47.008
  O       72.248     429.617      46.436
  C       71.168     427.519      47.061
  N       68.966     423.630      44.580
  C       70.292     424.022      44.574
  N       71.117     423.307      43.779
  N       70.747     425.029      45.272
  C       69.787     425.706      45.940
  C       68.440     425.426      46.004
  C       67.956     424.264      45.288
  O       66.797     423.867      45.274
  N       67.764     426.362      46.748
  C       68.687     427.251      47.058
  N       69.942     426.857      46.658
  O       67.548     427.778      51.746
  O       69.488     426.621      52.932
  H       72.463     429.116      45.627
  H       67.223     426.861      51.782
  H       68.680     422.829      44.045
  H       68.510     428.170      47.606
  H       71.962     427.152      46.397
  H       70.217     429.415      46.416
  H       70.804     422.579      43.158
  H       69.843     429.384      48.732
  H       72.052     423.677      43.600
  H       72.767     428.565      49.208
  H       71.660     427.182      51.010
  H       71.479     428.917      51.263
  P       70.441     431.889      49.301
  C       69.053     432.482      47.153
  O       70.012     432.864      48.114
  O       71.445     432.780      50.169
  O       69.285     431.398      50.111
  H       71.391     432.541      51.113
  H       68.914     433.278      46.452
  H       68.124     432.270      47.640
  H       69.393     431.608      46.638

 6  7  8  9  10  11  12  13  14  15  26  29  33  34 0
 6-311+G(2d,p)
 ****
 36  38  39  40  41 0
 6-311+G(2d,p)
 ****
 1  2  3  4  5  16  17  18  19  20  21  22  23  24  25 0
 3-21G
 ****
 27  28  30  31  32  35  37  42  43  44  45  46  47 0
 3-21G
 ****
 48  49 0
 3-21G
 ****


