%nproc=1
%NoSave
%Mem=1900MB
#P OB98/GEN NMR

erre ene a

0 1
  C      248.359     336.824    -184.123
  O      249.013     335.694    -184.707
  P      249.780     334.649    -183.767
  C      251.285     334.002    -185.775
  O      250.492     333.536    -184.677
  C      251.669     332.821    -186.676
  O      252.682     331.985    -186.058
  C      250.502     331.879    -186.951
  O      249.462     332.374    -187.768
  C      251.213     330.621    -187.411
  O      251.547     330.673    -188.790
  C      252.484     330.638    -186.531
  N      252.422     329.687    -185.419
  C      252.158     328.364    -185.766
  O      251.944     327.994    -186.915
  N      252.116     327.479    -184.717
  C      252.278     327.785    -183.400
  O      252.210     326.953    -182.498
  C      252.532     329.199    -183.097
  C      252.590     330.076    -184.105
  O      248.988     334.115    -182.617
  O      251.029     335.507    -183.230
  H      250.713     330.701    -189.299
  H      251.157     335.291    -182.287
  H      251.933     326.512    -184.946
  H      252.658     329.483    -182.055
  H      252.776     331.128    -183.907
  H      253.369     330.385    -187.134
  H      250.581     329.730    -187.273
  H      250.029     331.646    -185.980
  H      252.088     333.217    -187.606
  H      252.179     334.495    -185.394
  H      250.718     334.758    -186.325
  P      248.595     333.672    -187.395
  C      246.318     332.722    -188.213
  O      247.311     333.717    -188.360
  O      249.331     334.952    -187.171
  O      247.932     333.213    -185.995
  H      247.831     334.010    -185.433
  H      245.533     332.900    -188.955
  H      245.880     332.774    -187.215
  H      246.749     331.729    -188.378
  H      247.903     337.409    -184.894
  H      249.077     337.420    -183.600
  H      247.608     336.487    -183.439

 3  4  5  6  7  8  9  10  11  12  13  23  28  29  30  31  32 0
 6-311+G(2d,p)
 ****
 33  34 0
 6-311+G(2d,p)
 ****
 1  2  14  15  16  17  18  19  20  21  22  24  25  26  27 0
 3-21G
 ****
 35  36  37  38  39  40  41  42  43  44  45 0
 3-21G
 ****


