%nproc=1
%NoSave
%Mem=1900MB
#P OB98/GEN NMR

erre ene a

0 1
  C       74.809      28.009     -11.033
  O       74.281      28.650     -12.198
  P       75.089      29.903     -12.788
  C       73.754      31.744     -11.536
  O       75.010      31.111     -11.732
  C       73.883      32.976     -10.626
  O       74.107      32.577      -9.245
  C       75.040      33.901     -11.012
  O       74.684      35.241     -10.653
  C       76.156      33.435     -10.098
  O       77.185      34.416      -9.973
  C       75.365      33.145      -8.823
  N       78.571      32.887      -4.939
  C       78.097      33.984      -5.632
  N       78.515      35.195      -5.202
  N       77.285      33.903      -6.654
  C       76.926      32.630      -6.947
  C       77.330      31.462      -6.342
  C       78.247      31.567      -5.227
  O       78.711      30.628      -4.585
  N       76.764      30.365      -6.941
  C       76.025      30.870      -7.910
  N       76.061      32.239      -7.932
  O       74.155      30.399     -13.991
  O       76.461      29.564     -13.273
  H       76.750      35.266      -9.742
  H       74.571      30.177     -14.843
  H       79.202      33.007      -4.166
  H       75.450      30.295      -8.620
  H       75.153      34.057      -8.250
  H       76.607      32.516     -10.497
  H       79.098      35.330      -4.390
  H       75.320      33.874     -12.069
  H       78.151      36.018      -5.666
  H       72.939      33.532     -10.656
  H       73.043      31.040     -11.093
  H       73.334      32.011     -12.511
  P       74.539      36.300     -11.847
  C       76.921      37.300     -11.584
  O       76.022      36.564     -12.391
  O       74.166      37.665     -11.097
  O       73.528      35.936     -12.884
  H       73.682      38.259     -11.698
  H       77.629      36.610     -11.118
  H       76.403      37.870     -10.805
  H       77.472      37.999     -12.220
  H       74.172      27.196     -10.754
  H       74.860      28.714     -10.230
  H       75.790      27.637     -11.244

 3  4  5  6  7  8  9  10  11  12  23  26  30  31 0
 6-311+G(2d,p)
 ****
 33  35  36  37  38 0
 6-311+G(2d,p)
 ****
 1  2  13  14  15  16  17  18  19  20  21  22  24  25 0
 3-21G
 ****
 27  28  29  32  34  39  40  41  42  43  44  45  46  47  48  49 0
 3-21G
 ****


