%nproc=1
%NoSave
%Mem=1900MB
#P OB98/GEN NMR

erre ene a

0 1
  C     -160.490    -820.797      20.925
  O     -159.774    -819.758      21.592
  P     -160.132    -819.485      23.129
  C     -161.455    -817.257      22.810
  O     -161.494    -818.633      23.205
  C     -162.875    -816.767      22.495
  O     -163.763    -817.026      23.596
  C     -162.951    -815.256      22.274
  O     -162.480    -814.924      20.973
  C     -164.434    -814.981      22.486
  O     -165.179    -815.099      21.265
  C     -164.853    -816.091      23.493
  N     -165.221    -815.551      24.799
  C     -166.397    -814.789      24.835
  O     -167.043    -814.597      23.813
  N     -166.793    -814.267      26.043
  C     -166.057    -814.453      27.094
  N     -166.496    -813.900      28.257
  C     -164.788    -815.215      27.086
  C     -164.435    -815.742      25.915
  O     -159.010    -818.429      23.596
  O     -160.115    -820.712      23.990
  H     -166.112    -815.171      21.534
  H     -158.782    -818.563      24.542
  H     -164.216    -815.328      27.996
  H     -163.520    -816.306      25.812
  H     -165.715    -816.648      23.098
  H     -164.603    -813.968      22.862
  H     -162.353    -814.736      23.035
  H     -163.235    -817.299      21.608
  H     -167.374    -813.376      28.232
  H     -160.816    -817.136      21.931
  H     -166.009    -813.968      29.142
  H     -161.003    -816.668      23.624
  P     -161.026    -814.282      20.843
  C     -161.856    -811.858      20.742
  O     -161.146    -812.826      21.501
  O     -160.937    -813.938      19.280
  O     -159.871    -815.117      21.300
  H     -160.046    -813.634      19.049
  H     -162.040    -810.984      21.371
  H     -162.817    -812.264      20.406
  H     -161.262    -811.540      19.877
  H     -160.152    -820.869      19.912
  H     -161.536    -820.574      20.937
  H     -160.318    -821.727      21.426

 3  4  5  6  7  8  9  10  11  12  13  21  23  27  28  29  30  32 0
 6-311+G(2d,p)
 ****
 34  35 0
 6-311+G(2d,p)
 ****
 1  2  14  15  16  17  18  19  20  22  24  25  26 0
 3-21G
 ****
 31  33  36  37  38  39  40  41  42  43  44  45  46 0
 3-21G
 ****


