%nproc=1
%NoSave
%Mem=1900MB
#P OB98/GEN NMR

erre ene a

0 1
  C      672.607    -165.107     404.274
  O      673.754    -165.136     405.102
  H      671.745    -165.472     404.848
  H      672.758    -165.761     403.411
  H      672.399    -164.088     403.939
  P      675.083    -164.446     404.518
  C      674.311    -162.208     405.585
  O      674.773    -162.877     404.412
  C      675.305    -161.116     406.000
  O      675.558    -160.225     404.881
  C      674.822    -160.234     407.142
  O      675.063    -160.839     408.411
  C      675.709    -159.009     406.940
  O      677.038    -159.289     407.436
  C      675.720    -158.884     405.413
  N      674.735    -154.655     402.799
  C      675.949    -155.209     403.161
  N      677.063    -154.532     402.783
  N      676.068    -156.320     403.837
  C      674.875    -156.878     404.158
  C      673.610    -156.431     403.853
  C      673.495    -155.200     403.092
  O      672.446    -154.679     402.723
  N      672.643    -157.273     404.344
  C      673.322    -158.218     404.956
  N      674.675    -158.022     404.883
  O      675.100    -164.913     402.980
  O      676.352    -164.810     405.208
  H      677.477    -159.864     406.784
  H      676.028    -165.060     402.706
  H      674.701    -153.784     402.277
  H      672.876    -159.061     405.465
  H      676.678    -158.492     405.039
  H      675.343    -158.138     407.483
  H      677.033    -153.652     402.297
  H      673.769    -159.944     407.021
  H      677.960    -154.934     403.015
  H      676.254    -161.603     406.246
  H      674.221    -162.930     406.400
  H      673.327    -161.766     405.382
  P      673.782    -161.312     409.262
  C      674.738    -163.633     409.933
  O      673.770    -162.911     409.172
  O      672.551    -160.878     408.323
  O      673.687    -160.725     410.631
  H      671.746    -160.775     408.869
  H      674.607    -164.683     409.773
  H      674.611    -163.412     410.972
  H      675.721    -163.345     409.625

 6  7  8  9  10  11  12  13  14  15  26  29  33  34 0
 6-311+G(2d,p)
 ****
 36  38  39  40  41 0
 6-311+G(2d,p)
 ****
 1  2  3  4  5  16  17  18  19  20  21  22  23  24  25 0
 3-21G
 ****
 27  28  30  31  32  35  37  42  43  44  45  46  47 0
 3-21G
 ****
 48  49 0
 3-21G
 ****


