%nproc=1
%NoSave
%Mem=1900MB
#P OB98/GEN NMR

erre ene a

0 1
  C       78.078      53.214      65.709
  O       79.449      52.858      65.712
  P       79.951      51.828      64.586
  C       80.370      49.864      66.234
  O       79.613      50.358      65.135
  C       80.843      48.430      65.983
  O       81.862      48.096      66.956
  C       79.734      47.382      66.078
  O       79.989      46.384      65.089
  C       79.938      46.775      67.453
  O       79.403      45.455      67.532
  C       81.466      46.865      67.597
  N       81.892      46.827      68.992
  C       82.258      45.580      69.506
  O       82.138      44.570      68.815
  N       82.700      45.504      70.803
  C       82.674      46.561      71.553
  N       83.125      46.434      72.831
  C       82.179      47.870      71.085
  C       81.827      47.935      69.802
  O       81.543      51.911      64.709
  O       79.472      52.134      63.206
  H       79.905      44.885      66.907
  H       81.967      51.769      63.842
  H       82.143      48.711      71.762
  H       81.474      48.859      69.366
  H       81.953      46.041      67.061
  H       79.444      47.394      68.212
  H       78.736      47.804      65.929
  H       81.315      48.395      64.994
  H       83.446      45.523      73.132
  H       79.741      49.864      67.127
  H       83.141      47.203      73.487
  H       81.222      50.526      66.415
  P       78.725      45.646      64.432
  C       79.375      43.457      65.603
  O       78.379      44.446      65.437
  O       79.414      44.858      63.216
  O       77.585      46.482      63.956
  H       78.729      44.409      62.688
  H       79.069      42.783      66.408
  H       80.330      43.916      65.873
  H       79.483      42.877      64.682
  H       77.886      53.901      66.507
  H       77.481      52.336      65.843
  H       77.831      53.674      64.775

 3  4  5  6  7  8  9  10  11  12  13  21  23  27  28  29  30  32 0
 6-311+G(2d,p)
 ****
 34  35 0
 6-311+G(2d,p)
 ****
 1  2  14  15  16  17  18  19  20  22  24  25  26 0
 3-21G
 ****
 31  33  36  37  38  39  40  41  42  43  44  45  46 0
 3-21G
 ****


