%nproc=1
%NoSave
%Mem=1900MB
#P OB98/GEN NMR

erre ene a

0 1
  C     -104.895    -343.993     258.223
  O     -103.607    -344.550     258.095
  H     -105.614    -344.660     257.743
  H     -104.926    -343.022     257.720
  H     -105.175    -343.870     259.273
  P     -102.442    -344.032     259.064
  C     -100.530    -342.315     258.844
  O     -101.834    -342.692     258.423
  C     -100.009    -341.100     258.076
  O      -99.785    -341.444     256.690
  C     -101.011    -339.945     258.068
  O     -100.977    -339.104     259.207
  C     -100.597    -339.183     256.811
  O      -99.530    -338.262     257.099
  C     -100.107    -340.297     255.885
  N     -102.551    -338.979     251.595
  C     -101.654    -338.242     252.347
  N     -101.429    -336.976     251.934
  N     -101.058    -338.707     253.414
  C     -101.455    -339.954     253.760
  C     -102.343    -340.777     253.100
  C     -102.959    -340.272     251.889
  O     -103.764    -340.882     251.191
  N     -102.494    -341.977     253.749
  C     -101.757    -341.854     254.835
  N     -101.086    -340.653     254.872
  O     -101.260    -345.091     258.832
  O     -102.808    -343.942     260.513
  H      -98.719    -338.776     257.266
  H     -100.695    -345.135     259.623
  H     -102.959    -338.582     250.768
  H     -101.653    -342.607     255.609
  H      -99.190    -340.008     255.357
  H     -101.423    -338.592     256.407
  H     -101.954    -336.539     251.193
  H     -102.027    -340.322     257.920
  H     -100.998    -336.330     252.597
  H      -99.042    -340.794     258.494
  H      -99.881    -343.175     258.666
  H     -100.520    -342.120     259.921
  P     -102.301    -338.876     260.075
  C     -103.626    -336.795     260.905
  O     -102.488    -337.292     260.238
  O     -101.857    -339.360     261.532
  O     -103.504    -339.607     259.589
  H     -102.135    -340.284     261.681
  H     -103.590    -335.726     260.923
  H     -103.643    -337.168     261.908
  H     -104.508    -337.114     260.391

 6  7  8  9  10  11  12  13  14  15  26  29  33  34 0
 6-311+G(2d,p)
 ****
 36  38  39  40  41 0
 6-311+G(2d,p)
 ****
 1  2  3  4  5  16  17  18  19  20  21  22  23  24  25 0
 3-21G
 ****
 27  28  30  31  32  35  37  42  43  44  45  46  47 0
 3-21G
 ****
 48  49 0
 3-21G
 ****


