%nproc=1
%NoSave
%Mem=1900MB
#P OB98/GEN NMR

erre ene a

0 1
  C      454.372       1.600      52.404
  O      454.986       1.975      51.185
  H      455.131       1.326      53.140
  H      453.803       2.453      52.788
  H      453.687       0.763      52.242
  P      455.868       0.856      50.445
  C      458.242       1.528      51.269
  O      457.152       0.624      51.383
  C      459.329       1.152      52.270
  O      458.799       1.196      53.614
  C      459.888      -0.254      52.094
  O      460.865      -0.319      51.068
  C      460.511      -0.486      53.461
  O      461.760       0.221      53.552
  C      459.467       0.154      54.390
  N      458.362      -3.248      58.050
  C      459.459      -2.488      57.826
  N      459.676      -1.609      56.827
  C      458.613      -1.554      56.002
  C      457.437      -2.272      56.100
  C      457.324      -3.155      57.192
  N      456.213      -3.942      57.415
  N      456.587      -1.975      55.046
  C      457.238      -1.062      54.347
  N      458.472      -0.784      54.880
  O      456.478       1.635      49.186
  O      455.143      -0.389      50.055
  H      462.357      -0.174      52.890
  H      456.755       0.996      48.501
  H      460.266      -2.602      58.545
  H      456.862      -0.579      53.457
  H      459.923       0.636      55.266
  H      460.718      -1.538      53.666
  H      459.087      -0.993      51.935
  H      460.130       1.901      52.201
  H      457.891       2.542      51.481
  H      456.311      -4.668      58.111
  H      455.501      -3.990      56.696
  H      458.636       1.489      50.247
  P      461.026      -1.716      50.292
  C      463.199      -2.245      51.627
  O      461.886      -2.663      51.259
  O      462.051      -1.364      49.116
  O      459.747      -2.299      49.779
  H      461.926      -1.955      48.351
  H      463.640      -2.978      52.270
  H      463.144      -1.308      52.140
  H      463.798      -2.136      50.747

 6  7  8  9  10  11  12  13  14  15  25  28  32  33  34  35 0
 6-311+G(2d,p)
 ****
 36  39  40 0
 6-311+G(2d,p)
 ****
 1  2  3  4  5  16  17  18  19  20  21  22  23  24 0
 3-21G
 ****
 26  27  29  30  31  37  38  41  42  43  44  45  46  47 0
 3-21G
 ****
 48 0
 3-21G
 ****


