%nproc=1
%NoSave
%Mem=1900MB
#P OB98/GEN NMR

erre ene a

0 1
  C       67.377    -239.233      85.046
  O       67.519    -239.758      83.734
  P       67.063    -241.280      83.487
  C       69.114    -242.723      82.802
  O       68.337    -242.178      83.867
  C       69.992    -241.645      82.175
  O       70.743    -240.959      83.195
  C       71.023    -242.170      81.187
  O       70.468    -242.390      79.898
  C       72.002    -241.004      81.149
  O       71.485    -239.961      80.300
  C       72.006    -240.544      82.610
  N       77.082    -240.555      83.236
  C       76.289    -239.947      82.329
  N       74.944    -240.002      82.220
  C       74.425    -240.814      83.158
  C       75.113    -241.531      84.123
  C       76.506    -241.372      84.153
  N       77.311    -241.969      85.099
  N       74.241    -242.258      84.902
  C       73.045    -241.979      84.424
  N       73.104    -241.103      83.375
  O       67.000    -241.381      81.891
  O       65.773    -241.662      84.126
  H       71.380    -240.347      79.407
  H       66.403    -242.106      81.625
  H       76.800    -239.325      81.598
  H       72.115    -242.376      84.809
  H       72.062    -239.451      82.703
  H       72.982    -241.285      80.748
  H       71.529    -243.061      81.573
  H       69.333    -240.911      81.693
  H       68.439    -243.123      82.038
  H       78.269    -241.660      85.167
  H       76.862    -242.409      85.894
  H       69.727    -243.539      83.192
  P       71.176    -243.510      78.988
  C       72.355    -242.522      76.894
  O       72.407    -242.766      78.285
  O       70.126    -243.728      77.804
  O       71.487    -244.778      79.713
  H       70.223    -244.621      77.422
  H       73.096    -241.759      76.642
  H       71.366    -242.163      76.595
  H       72.594    -243.438      76.348
  H       67.717    -238.219      85.063
  H       67.960    -239.816      85.728
  H       66.347    -239.269      85.335

 3  4  5  6  7  8  9  10  11  12  22  25  29  30  31  32 0
 6-311+G(2d,p)
 ****
 33  36  37 0
 6-311+G(2d,p)
 ****
 1  2  13  14  15  16  17  18  19  20  21  23  24  26 0
 3-21G
 ****
 27  28  34  35  38  39  40  41  42  43  44  45  46  47  48 0
 3-21G
 ****


