%nproc=1
%NoSave
%Mem=1900MB
#P OB98/GEN NMR

erre ene a

0 1
  C     -607.127     117.952     427.298
  O     -607.074     116.595     427.673
  H     -607.212     118.000     426.207
  H     -606.211     118.468     427.596
  H     -608.001     118.438     427.741
  P     -606.754     116.220     429.206
  C     -604.211     116.421     429.467
  O     -605.459     117.098     429.587
  C     -603.082     117.182     430.175
  O     -603.348     117.222     431.604
  C     -601.702     116.556     429.984
  O     -600.755     117.584     429.650
  C     -601.373     115.966     431.358
  O     -599.971     115.834     431.555
  C     -602.108     116.953     432.269
  N     -602.318     116.414     433.612
  C     -601.318     116.669     434.561
  O     -600.293     117.276     434.230
  N     -601.465     116.193     435.832
  C     -602.510     115.472     436.139
  N     -602.595     115.021     437.419
  C     -603.576     115.147     435.166
  C     -603.421     115.654     433.935
  O     -606.630     114.758     429.481
  O     -607.926     116.929     430.043
  H     -599.817     115.390     432.424
  H     -607.999     116.494     430.933
  H     -604.420     114.546     435.465
  H     -604.158     115.470     433.159
  H     -601.555     117.892     432.365
  H     -601.823     114.969     431.434
  H     -601.668     115.790     429.205
  H     -603.111     118.225     429.833
  H     -601.845     115.277     438.054
  H     -603.976     116.297     428.407
  H     -603.355     114.455     437.768
  H     -604.309     115.427     429.924
  P     -600.341     117.684     428.104
  C     -598.517     115.895     427.630
  O     -599.902     116.219     427.602
  O     -598.966     118.510     428.136
  O     -601.365     118.363     427.247
  H     -599.134     119.442     427.907
  H     -598.377     114.897     427.271
  H     -598.154     115.967     428.634
  H     -597.978     116.577     427.006

 6  7  8  9  10  11  12  13  14  15  16  26  30  31  32  33  35 0
 6-311+G(2d,p)
 ****
 37  38 0
 6-311+G(2d,p)
 ****
 1  2  3  4  5  17  18  19  20  21  22  23  24  25 0
 3-21G
 ****
 27  28  29  34  36  39  40  41  42  43  44  45  46 0
 3-21G
 ****


