%nproc=1
%NoSave
%Mem=1900MB
#P OB98/GEN NMR

erre ene a

0 1
  C     -123.946     747.703     -69.311
  O     -124.906     747.184     -70.212
  P     -125.512     748.102     -71.383
  C     -128.016     748.640     -70.779
  O     -126.655     749.025     -70.755
  C     -128.362     747.961     -69.445
  O     -127.880     748.742     -68.341
  C     -129.876     747.800     -69.274
  O     -130.297     746.513     -69.718
  C     -130.068     748.022     -67.792
  O     -129.773     746.810     -67.054
  C     -128.997     749.108     -67.495
  N     -129.349     750.514     -67.774
  C     -130.124     751.223     -66.869
  O     -130.538     750.751     -65.801
  N     -130.440     752.507     -67.234
  C     -130.033     753.140     -68.373
  O     -130.514     754.177     -68.804
  C     -129.002     752.436     -69.145
  C     -128.718     751.165     -68.839
  O     -126.340     747.048     -72.266
  O     -124.517     748.853     -72.203
  H     -130.069     746.962     -66.139
  H     -125.825     746.775     -73.050
  H     -131.138     752.986     -66.654
  H     -128.551     752.952     -69.982
  H     -127.989     750.623     -69.410
  H     -128.664     749.052     -66.447
  H     -131.108     748.276     -67.558
  H     -130.404     748.589     -69.823
  H     -127.879     746.972     -69.417
  H     -128.201     747.963     -71.616
  H     -128.655     749.518     -70.934
  P     -131.846     746.255     -70.063
  C     -132.873     744.464     -68.534
  O     -132.518     745.831     -68.663
  O     -132.112     745.333     -71.208
  O     -132.409     747.736     -70.328
  H     -132.434     747.910     -71.288
  H     -133.142     744.266     -67.497
  H     -132.040     743.815     -68.814
  H     -133.734     744.253     -69.184
  H     -123.668     746.944     -68.610
  H     -124.363     748.537     -68.787
  H     -123.081     748.020     -69.855

 3  4  5  6  7  8  9  10  11  12  13  23  28  29  30  31  32 0
 6-311+G(2d,p)
 ****
 33  34 0
 6-311+G(2d,p)
 ****
 1  2  14  15  16  17  18  19  20  21  22  24  25  26  27 0
 3-21G
 ****
 35  36  37  38  39  40  41  42  43  44  45 0
 3-21G
 ****


