%nproc=1
%NoSave
%Mem=1900MB
#P OB98/GEN NMR

erre ene a

0 1
  C     -142.435    -233.866    -243.399
  O     -143.408    -234.783    -242.920
  P     -143.148    -236.350    -243.178
  C     -143.886    -236.834    -240.735
  O     -142.879    -236.986    -241.731
  C     -143.349    -236.041    -239.546
  O     -143.206    -234.651    -239.901
  C     -144.246    -236.061    -238.318
  O     -144.069    -237.240    -237.544
  C     -143.726    -234.848    -237.562
  O     -142.505    -235.187    -236.874
  C     -143.433    -233.865    -238.700
  N     -145.190    -229.167    -237.701
  C     -144.106    -229.836    -237.254
  N     -143.712    -231.090    -237.559
  C     -144.592    -231.676    -238.391
  C     -145.761    -231.130    -238.899
  C     -146.050    -229.806    -238.531
  N     -147.140    -229.117    -239.007
  N     -146.404    -232.035    -239.715
  C     -145.632    -233.105    -239.710
  N     -144.522    -232.931    -238.932
  O     -141.699    -236.363    -243.859
  O     -144.171    -237.027    -244.019
  H     -141.843    -235.394    -237.560
  H     -141.584    -237.180    -244.386
  H     -143.465    -229.290    -236.572
  H     -145.835    -234.014    -240.257
  H     -142.527    -233.275    -238.523
  H     -144.429    -234.485    -236.808
  H     -145.297    -235.902    -238.588
  H     -142.353    -236.432    -239.305
  H     -144.202    -237.823    -240.392
  H     -147.178    -228.122    -238.848
  H     -147.662    -229.525    -239.777
  H     -144.749    -236.323    -241.176
  P     -145.248    -238.327    -237.603
  C     -144.010    -240.280    -238.792
  O     -144.940    -239.217    -238.899
  O     -146.526    -237.457    -238.024
  O     -145.459    -239.068    -236.326
  H     -147.345    -237.886    -237.714
  H     -144.149    -240.953    -239.641
  H     -144.163    -240.845    -237.868
  H     -142.990    -239.887    -238.817
  H     -142.737    -232.868    -243.159
  H     -142.344    -233.965    -244.460
  H     -141.492    -234.074    -242.939

 3  4  5  6  7  8  9  10  11  12  22  25  29  30  31  32 0
 6-311+G(2d,p)
 ****
 33  36  37 0
 6-311+G(2d,p)
 ****
 1  2  13  14  15  16  17  18  19  20  21  23  24  26 0
 3-21G
 ****
 27  28  34  35  38  39  40  41  42  43  44  45  46  47  48 0
 3-21G
 ****


