%nproc=1
%NoSave
%Mem=1900MB
#P OB98/GEN NMR

erre ene a

0 1
  C     -102.313       8.934     260.481
  O     -103.114       7.938     261.098
  P     -102.377       6.592     261.582
  C     -101.753       7.378     263.977
  O     -101.292       7.041     262.676
  C     -100.923       6.688     265.064
  O     -101.348       7.172     266.361
  C     -101.046       5.164     265.063
  O      -99.763       4.623     265.398
  C     -102.012       4.886     266.198
  O     -101.844       3.569     266.725
  C     -101.664       6.021     267.171
  N     -102.753       6.305     268.099
  C     -102.886       5.452     269.202
  O     -102.152       4.471     269.310
  N     -103.875       5.703     270.120
  C     -104.725       6.657     269.900
  N     -105.685       6.869     270.840
  C     -104.696       7.501     268.688
  C     -103.684       7.286     267.851
  O     -101.484       6.196     260.317
  O     -103.301       5.493     261.994
  H     -100.936       3.496     267.087
  H     -101.391       5.227     260.245
  H     -105.454       8.259     268.540
  H     -103.568       7.877     266.952
  H     -100.765       5.772     267.755
  H     -103.044       4.985     265.845
  H     -101.374       4.762     264.099
  H      -99.875       6.984     264.931
  H     -105.695       6.266     271.654
  H     -102.797       7.053     264.084
  H     -106.393       7.587     270.755
  H     -101.724       8.469     264.103
  P      -99.243       3.369     264.544
  C      -98.163       5.028     262.912
  O      -99.046       3.930     263.055
  O     -100.586       2.507     264.386
  O      -98.134       2.544     265.109
  H     -100.387       1.669     263.932
  H      -98.016       5.220     261.843
  H      -97.191       4.804     263.360
  H      -98.597       5.921     263.370
  H     -102.926       9.768     260.211
  H     -101.854       8.530     259.603
  H     -101.554       9.255     261.164

 3  4  5  6  7  8  9  10  11  12  13  21  23  27  28  29  30  32 0
 6-311+G(2d,p)
 ****
 34  35 0
 6-311+G(2d,p)
 ****
 1  2  14  15  16  17  18  19  20  22  24  25  26 0
 3-21G
 ****
 31  33  36  37  38  39  40  41  42  43  44  45  46 0
 3-21G
 ****


