%nproc=1
%NoSave
%Mem=1900MB
#P OB98/GEN NMR

erre ene a

0 1
  C       22.387     470.690     151.594
  O       23.115     469.888     152.500
  H       22.671     470.414     150.575
  H       22.614     471.748     151.751
  H       21.312     470.513     151.720
  P       22.865     470.161     154.062
  C       24.638     472.033     153.965
  O       23.290     471.698     154.268
  C       25.032     473.341     154.648
  O       25.474     473.045     155.991
  C       26.169     474.084     153.934
  O       25.922     475.487     153.991
  C       27.393     473.742     154.769
  O       28.414     474.731     154.663
  C       26.784     473.614     156.167
  N       29.856     473.559     160.242
  C       29.093     474.532     159.700
  N       28.286     474.452     158.612
  C       28.286     473.208     158.114
  C       29.020     472.116     158.553
  C       29.841     472.331     159.672
  N       30.643     471.351     160.217
  N       28.779     471.018     157.750
  C       27.910     471.436     156.850
  N       27.597     472.755     157.016
  O       23.504     469.191     154.997
  O       21.271     470.231     154.128
  H       29.119     474.518     155.308
  H       20.904     470.755     153.391
  H       29.137     475.501     160.192
  H       27.498     470.829     156.051
  H       26.685     474.574     156.678
  H       27.808     472.786     154.435
  H       26.285     473.769     152.896
  H       24.139     473.976     154.736
  H       24.766     472.128     152.880
  H       31.196     471.590     161.028
  H       30.637     470.427     159.817
  H       25.277     471.211     154.315
  P       25.249     476.196     152.722
  C       27.405     477.073     151.597
  O       26.295     476.180     151.510
  O       24.591     477.516     152.982
  O       24.163     475.105     152.253
  H       23.364     475.567     151.946
  H       28.021     476.962     150.729
  H       27.977     476.846     152.472
  H       27.049     478.080     151.655

 6  7  8  9  10  11  12  13  14  15  25  28  32  33  34  35 0
 6-311+G(2d,p)
 ****
 36  39  40 0
 6-311+G(2d,p)
 ****
 1  2  3  4  5  16  17  18  19  20  21  22  23  24 0
 3-21G
 ****
 26  27  29  30  31  37  38  41  42  43  44  45  46  47 0
 3-21G
 ****
 48 0
 3-21G
 ****


