%nproc=1
%NoSave
%Mem=1900MB
#P OB98/GEN NMR

erre ene a

0 1
  C     -135.659    -150.802     457.586
  O     -136.594    -149.876     457.069
  H     -135.776    -150.850     458.673
  H     -134.636    -150.493     457.358
  H     -135.848    -151.797     457.172
  P     -136.452    -149.436     455.533
  C     -138.758    -150.361     454.827
  O     -137.954    -149.198     455.014
  C     -140.247    -150.005     454.823
  O     -140.641    -149.513     456.120
  C     -140.609    -148.895     453.850
  O     -140.507    -149.265     452.490
  C     -141.940    -148.400     454.396
  O     -143.059    -149.142     453.925
  C     -141.764    -148.629     455.918
  N     -141.609    -147.375     456.647
  C     -142.782    -146.801     457.121
  O     -143.898    -147.285     456.936
  N     -142.638    -145.615     457.787
  C     -141.468    -144.942     457.976
  O     -141.411    -143.859     458.546
  C     -140.263    -145.584     457.427
  C     -140.386    -146.755     456.796
  O     -135.651    -150.358     454.663
  O     -135.858    -147.955     455.614
  H     -143.831    -148.866     454.458
  H     -135.480    -147.674     454.748
  H     -143.478    -145.191     458.149
  H     -139.316    -145.076     457.556
  H     -139.509    -147.248     456.382
  H     -142.641    -149.147     456.327
  H     -142.115    -147.355     454.134
  H     -139.896    -148.074     453.989
  H     -140.819    -150.914     454.618
  H     -138.552    -151.044     455.658
  H     -138.479    -150.855     453.888
  P     -139.966    -148.283     451.351
  C     -137.962    -149.788     450.668
  O     -139.174    -149.164     450.265
  O     -139.360    -146.996     451.809
  O     -141.330    -147.923     450.569
  H     -141.254    -147.002     450.257
  H     -137.552    -150.335     449.845
  H     -138.158    -150.457     451.479
  H     -137.264    -149.041     450.983

 6  7  8  9  10  11  12  13  14  15  16  26  31  32  33  34  35 0
 6-311+G(2d,p)
 ****
 36  37 0
 6-311+G(2d,p)
 ****
 1  2  3  4  5  17  18  19  20  21  22  23  24  25 0
 3-21G
 ****
 27  28  29  30  38  39  40  41  42  43  44  45 0
 3-21G
 ****


