%nproc=1
%NoSave
%Mem=1900MB
#P OB98/GEN NMR

erre ene a

0 1
  C     -527.211    -111.237      90.139
  O     -528.230    -110.412      89.608
  H     -527.067    -111.030      91.204
  H     -527.509    -112.283      90.020
  H     -526.276    -111.071      89.600
  P     -528.032    -108.832      89.790
  C     -529.873    -107.920      91.377
  O     -528.562    -108.466      91.260
  C     -530.891    -109.043      91.566
  O     -530.402    -110.011      92.526
  C     -532.238    -108.588      92.115
  O     -533.052    -108.008      91.103
  C     -532.806    -109.920      92.602
  O     -533.359    -110.649      91.489
  C     -531.560    -110.633      93.134
  N     -532.525    -112.998      97.596
  C     -532.806    -113.343      96.325
  N     -532.530    -112.662      95.190
  C     -531.871    -111.516      95.455
  C     -531.516    -111.032      96.708
  C     -531.873    -111.834      97.829
  N     -531.596    -111.459      99.127
  N     -530.849    -109.832      96.603
  C     -530.802    -109.593      95.308
  N     -531.413    -110.573      94.575
  O     -529.144    -108.202      88.823
  O     -526.665    -108.313      89.453
  H     -532.719    -110.574      90.759
  H     -528.794    -107.385      88.425
  H     -533.315    -114.286      96.187
  H     -530.330    -108.726      94.863
  H     -531.545    -111.695      92.836
  H     -533.599    -109.800      93.335
  H     -532.115    -107.912      92.977
  H     -531.010    -109.549      90.601
  H     -530.118    -107.365      90.462
  H     -531.706    -112.145      99.847
  H     -531.112    -110.589      99.274
  H     -529.890    -107.241      92.235
  P     -534.035    -106.807      91.538
  C     -536.587    -107.262      91.609
  O     -535.309    -107.507      92.204
  O     -534.591    -106.267      90.140
  O     -533.382    -105.719      92.343
  H     -534.853    -105.325      90.234
  H     -537.341    -107.790      92.154
  H     -536.578    -107.600      90.594
  H     -536.797    -106.213      91.634

 6  7  8  9  10  11  12  13  14  15  25  28  32  33  34  35 0
 6-311+G(2d,p)
 ****
 36  39  40 0
 6-311+G(2d,p)
 ****
 1  2  3  4  5  16  17  18  19  20  21  22  23  24 0
 3-21G
 ****
 26  27  29  30  31  37  38  41  42  43  44  45  46  47  48 0
 3-21G
 ****


