%nproc=1
%NoSave
%Mem=1900MB
#P OB98/GEN NMR

erre ene a

0 1
  C      -49.661     433.681     -42.968
  O      -48.358     433.655     -43.521
  H      -49.731     432.907     -42.199
  H      -50.411     433.480     -43.739
  H      -49.858     434.653     -42.505
  P      -48.009     434.673     -44.710
  C      -47.559     436.676     -43.135
  O      -48.382     436.139     -44.164
  C      -46.494     437.596     -43.733
  O      -47.102     438.570     -44.602
  C      -45.692     438.381     -42.695
  O      -44.661     437.577     -42.145
  C      -45.157     439.513     -43.559
  O      -44.053     439.028     -44.360
  C      -46.362     439.819     -44.461
  N      -47.521     444.767     -44.469
  C      -46.433     444.111     -45.011
  N      -45.505     444.887     -45.616
  N      -46.260     442.813     -44.958
  C      -47.232     442.173     -44.262
  C      -48.349     442.717     -43.663
  C      -48.560     444.144     -43.791
  O      -49.529     444.761     -43.341
  N      -49.060     441.764     -42.967
  C      -48.401     440.645     -43.192
  N      -47.277     440.838     -43.964
  O      -48.603     434.352     -46.047
  O      -46.407     434.696     -44.753
  H      -43.290     438.923     -43.760
  H      -46.062     434.036     -45.383
  H      -47.597     445.767     -44.537
  H      -48.689     439.664     -42.823
  H      -46.057     440.135     -45.468
  H      -44.781     440.355     -42.972
  H      -45.504     445.898     -45.561
  H      -46.342     438.804     -41.921
  H      -44.669     444.426     -45.968
  H      -45.830     436.977     -44.356
  H      -47.092     435.832     -42.612
  H      -48.166     437.233     -42.415
  P      -44.233     437.698     -40.600
  C      -45.975     435.925     -39.855
  O      -45.545     437.272     -39.763
  O      -43.647     439.010     -40.209
  O      -43.271     436.446     -40.355
  H      -42.329     436.632     -40.609
  H      -46.849     435.788     -39.253
  H      -45.197     435.278     -39.507
  H      -46.204     435.692     -40.874

 6  7  8  9  10  11  12  13  14  15  26  29  33  34 0
 6-311+G(2d,p)
 ****
 36  38  39  40  41 0
 6-311+G(2d,p)
 ****
 1  2  3  4  5  16  17  18  19  20  21  22  23  24  25 0
 3-21G
 ****
 27  28  30  31  32  35  37  42  43  44  45  46  47 0
 3-21G
 ****
 48  49 0
 3-21G
 ****


