%nproc=1
%NoSave
%Mem=1900MB
#P OB98/GEN NMR

erre ene a

0 1
  C       60.665     177.474    -876.806
  O       59.463     178.203    -876.660
  H       61.453     178.149    -877.140
  H       60.527     176.696    -877.566
  H       60.962     177.020    -875.858
  P       58.285     177.521    -875.818
  C       55.850     177.879    -876.654
  O       56.986     178.452    -876.005
  C       55.321     178.845    -877.713
  O       54.893     180.070    -877.069
  C       56.337     179.217    -878.804
  O       55.656     179.340    -880.052
  C       56.790     180.599    -878.374
  O       57.317     181.360    -879.462
  C       55.487     181.158    -877.797
  N       56.510     186.069    -877.992
  C       56.121     185.193    -878.982
  N       56.053     185.682    -880.240
  N       55.836     183.938    -878.766
  C       55.928     183.587    -877.458
  C       56.301     184.354    -876.382
  C       56.641     185.732    -876.640
  O       57.000     186.551    -875.798
  N       56.325     183.598    -875.233
  C       55.993     182.375    -875.620
  N       55.737     182.314    -876.957
  O       58.727     177.810    -874.304
  O       58.073     176.067    -876.068
  H       57.588     182.235    -879.117
  H       59.219     177.041    -873.951
  H       56.752     187.025    -878.211
  H       55.935     181.515    -874.971
  H       54.783     181.474    -878.587
  H       57.553     180.520    -877.601
  H       56.247     186.646    -880.480
  H       57.173     178.508    -878.892
  H       55.737     185.064    -880.978
  H       54.422     178.392    -878.179
  H       55.071     177.688    -875.913
  H       56.141     176.924    -877.109
  P       55.928     178.208    -881.170
  C       56.073     179.509    -883.430
  O       55.289     178.704    -882.565
  O       54.953     177.013    -880.715
  O       57.344     177.755    -881.252
  H       55.367     176.165    -880.922
  H       55.506     179.750    -884.305
  H       56.955     178.974    -883.713
  H       56.350     180.411    -882.925

 6  7  8  9  10  11  12  13  14  15  26  29  33  34 0
 6-311+G(2d,p)
 ****
 36  38  39  40  41 0
 6-311+G(2d,p)
 ****
 1  2  3  4  5  16  17  18  19  20  21  22  23  24  25 0
 3-21G
 ****
 27  28  30  31  32  35  37  42  43  44  45  46  47 0
 3-21G
 ****
 48  49 0
 3-21G
 ****


