%nproc=1
%NoSave
%Mem=1900MB
#P OB98/GEN NMR

erre ene a

0 1
  C      416.242    -604.326    -590.339
  O      416.126    -605.129    -589.186
  P      417.330    -605.219    -588.125
  C      415.802    -604.188    -586.314
  O      416.626    -605.301    -586.681
  C      414.403    -604.656    -585.933
  O      413.708    -605.177    -587.083
  C      414.380    -605.772    -584.904
  O      414.641    -605.267    -583.603
  C      412.979    -606.330    -585.096
  O      412.010    -605.556    -584.376
  C      412.781    -606.176    -586.621
  N      412.957    -607.436    -587.331
  C      412.229    -608.528    -586.843
  O      411.515    -608.400    -585.842
  N      412.358    -609.751    -587.458
  C      413.175    -609.873    -588.467
  N      413.277    -611.110    -589.029
  C      413.988    -608.759    -588.997
  C      413.832    -607.581    -588.379
  O      418.381    -604.178    -588.275
  O      417.874    -606.718    -588.335
  H      411.153    -606.021    -584.478
  H      418.394    -606.794    -589.177
  H      414.660    -608.917    -589.824
  H      414.391    -606.714    -588.707
  H      411.772    -605.795    -586.841
  H      412.892    -607.360    -584.743
  H      415.115    -606.540    -585.171
  H      413.849    -603.785    -585.554
  H      412.719    -611.849    -588.620
  H      415.737    -603.511    -587.174
  H      413.898    -611.323    -589.797
  H      416.277    -603.648    -585.484
  P      415.417    -606.168    -582.529
  C      417.426    -604.597    -582.835
  O      416.593    -605.270    -581.903
  O      415.821    -607.524    -583.007
  O      414.368    -606.276    -581.317
  H      414.352    -607.209    -581.007
  H      417.945    -603.787    -582.306
  H      416.834    -604.170    -583.644
  H      418.162    -605.290    -583.237
  H      415.344    -604.398    -590.916
  H      417.071    -604.663    -590.926
  H      416.400    -603.308    -590.050

 3  4  5  6  7  8  9  10  11  12  13  23  27  28  29  30  32 0
 6-311+G(2d,p)
 ****
 34  35 0
 6-311+G(2d,p)
 ****
 1  2  14  15  16  17  18  19  20  21  22  24  25  26 0
 3-21G
 ****
 31  33  36  37  38  39  40  41  42  43  44  45  46 0
 3-21G
 ****


