%nproc=1
%NoSave
%Mem=1900MB
#P OB98/GEN NMR

erre ene a

0 1
  C      692.170    -340.857     511.350
  O      691.055    -340.144     511.853
  P      689.890    -339.650     510.859
  C      691.778    -338.387     509.651
  O      690.580    -339.137     509.500
  C      691.659    -337.041     508.940
  O      691.262    -337.230     507.564
  C      690.602    -336.106     509.533
  O      691.013    -335.556     510.777
  C      690.438    -335.099     508.389
  O      691.480    -334.127     508.421
  C      690.581    -336.014     507.151
  N      689.301    -336.306     506.538
  C      688.497    -335.193     506.227
  O      688.853    -334.057     506.558
  N      687.313    -335.404     505.562
  C      686.901    -336.623     505.336
  N      685.750    -336.764     504.627
  C      687.640    -337.810     505.792
  C      688.833    -337.592     506.373
  O      688.907    -338.705     511.465
  O      689.181    -341.006     510.406
  H      688.217    -340.915     510.520
  H      692.325    -334.602     508.300
  H      687.221    -338.798     505.640
  H      689.454    -338.407     506.706
  H      691.239    -335.532     506.425
  H      689.481    -334.567     508.469
  H      689.672    -336.651     509.676
  H      692.642    -336.554     508.961
  H      685.292    -335.922     504.308
  H      692.614    -338.956     509.234
  H      685.516    -337.615     504.127
  H      691.978    -338.230     510.726
  P      689.879    -335.292     511.871
  C      689.247    -333.113     510.611
  O      688.792    -334.329     511.204
  O      690.613    -334.363     512.949
  O      689.337    -336.551     512.498
  H      690.299    -334.601     513.844
  H      688.488    -332.755     509.913
  H      690.172    -333.272     510.051
  H      689.410    -332.371     511.401
  H      692.832    -341.098     512.155
  H      692.686    -340.253     510.633
  H      691.835    -341.759     510.882

 3  4  5  6  7  8  9  10  11  12  13  24  27  28  29  30  32 0
 6-311+G(2d,p)
 ****
 34  35 0
 6-311+G(2d,p)
 ****
 1  2  14  15  16  17  18  19  20  21  22  23  25  26 0
 3-21G
 ****
 31  33  36  37  38  39  40  41  42  43  44  45  46 0
 3-21G
 ****


