%nproc=1
%NoSave
%Mem=1900MB
#P OB98/GEN NMR

erre ene a

0 1
  C      408.253      -7.009    -312.221
  O      407.464      -5.943    -311.679
  P      405.875      -6.152    -311.607
  C      405.753      -5.778    -309.033
  O      405.312      -5.374    -310.327
  C      405.785      -4.575    -308.088
  O      407.047      -3.886    -308.163
  C      404.737      -3.527    -308.418
  O      403.463      -3.934    -307.952
  C      405.288      -2.293    -307.714
  O      404.802      -2.192    -306.361
  C      406.812      -2.531    -307.737
  N      407.518      -1.582    -308.582
  C      407.782      -0.331    -308.007
  O      407.402      -0.083    -306.864
  N      408.444       0.605    -308.762
  C      408.787       0.331    -309.982
  N      409.435       1.302    -310.676
  C      408.501      -0.967    -310.634
  C      407.874      -1.871    -309.878
  O      405.732      -7.695    -311.198
  O      405.169      -5.858    -312.895
  H      403.821      -2.191    -306.436
  H      404.930      -8.078    -311.601
  H      408.802      -1.149    -311.654
  H      407.621      -2.846    -310.272
  H      407.227      -2.450    -306.720
  H      404.985      -1.373    -308.224
  H      404.707      -3.355    -309.504
  H      405.641      -4.940    -307.058
  H      409.609       2.180    -310.205
  H      406.746      -6.232    -309.096
  H      409.741       1.197    -311.636
  H      405.081      -6.557    -308.657
  P      402.180      -3.153    -308.511
  C      400.810      -5.283    -308.945
  O      400.933      -4.108    -308.172
  O      402.330      -3.363    -310.098
  O      402.038      -1.715    -308.146
  H      401.645      -2.847    -310.566
  H      400.063      -5.932    -308.481
  H      401.763      -5.817    -308.984
  H      400.478      -5.029    -309.956
  H      409.286      -6.731    -312.206
  H      407.949      -7.201    -313.229
  H      408.113      -7.891    -311.632

 3  4  5  6  7  8  9  10  11  12  13  21  23  27  28  29  30  32 0
 6-311+G(2d,p)
 ****
 34  35 0
 6-311+G(2d,p)
 ****
 1  2  14  15  16  17  18  19  20  22  24  25  26 0
 3-21G
 ****
 31  33  36  37  38  39  40  41  42  43  44  45  46 0
 3-21G
 ****


