%nproc=1
%NoSave
%Mem=1900MB
#P OB98/GEN NMR

erre ene a

0 1
  C      142.633    -482.233     426.973
  O      142.365    -483.247     427.923
  P      143.562    -483.902     428.759
  C      145.015    -486.055     428.525
  O      143.974    -485.254     428.002
  C      145.153    -487.366     427.742
  O      143.902    -488.079     427.854
  C      145.419    -487.194     426.252
  O      145.931    -488.427     425.736
  C      144.017    -486.969     425.716
  O      143.921    -487.233     424.317
  C      143.159    -487.890     426.622
  N      141.839    -487.293     426.908
  C      140.986    -487.100     425.824
  O      141.262    -487.474     424.685
  N      139.848    -486.396     426.076
  C      139.521    -485.833     427.284
  O      138.670    -484.952     427.422
  C      140.333    -486.263     428.431
  C      141.463    -486.948     428.194
  O      142.825    -484.418     430.084
  O      144.687    -482.979     429.073
  H      142.968    -487.375     424.112
  H      142.929    -483.762     430.801
  H      139.300    -486.131     425.268
  H      140.019    -485.966     429.422
  H      142.100    -487.241     429.014
  H      142.992    -488.873     426.151
  H      143.738    -485.923     425.876
  H      146.086    -486.369     426.001
  H      145.937    -487.981     428.212
  H      144.818    -486.251     429.583
  H      145.960    -485.508     428.486
  P      146.811    -488.364     424.398
  C      146.333    -487.990     421.896
  O      145.780    -488.122     423.192
  O      147.776    -489.486     424.199
  O      147.558    -486.954     424.512
  H      148.330    -486.935     423.918
  H      145.607    -488.341     421.164
  H      147.255    -488.574     421.793
  H      146.555    -486.940     421.707
  H      141.717    -481.920     426.518
  H      143.293    -482.614     426.222
  H      143.092    -481.399     427.461

 3  4  5  6  7  8  9  10  11  12  13  23  28  29  30  31  32 0
 6-311+G(2d,p)
 ****
 33  34 0
 6-311+G(2d,p)
 ****
 1  2  14  15  16  17  18  19  20  21  22  24  25  26  27 0
 3-21G
 ****
 35  36  37  38  39  40  41  42  43  44  45 0
 3-21G
 ****


