%nproc=1
%NoSave
%Mem=1900MB
#P OB98/GEN NMR

erre ene a

0 1
  C     -744.263    -196.882    -222.389
  O     -743.888    -195.555    -222.703
  H     -743.657    -197.570    -222.992
  H     -745.319    -197.048    -222.620
  H     -744.075    -197.083    -221.326
  P     -744.688    -194.387    -221.946
  C     -746.295    -194.165    -223.956
  O     -746.167    -194.454    -222.568
  C     -747.703    -194.502    -224.452
  O     -748.660    -193.737    -223.670
  C     -747.927    -194.156    -225.934
  O     -748.749    -195.164    -226.527
  C     -748.687    -192.840    -225.879
  O     -749.482    -192.630    -227.041
  C     -749.488    -193.004    -224.584
  N     -752.726    -189.066    -224.943
  C     -752.695    -190.272    -225.552
  N     -751.798    -191.269    -225.387
  C     -750.896    -190.945    -224.446
  C     -750.796    -189.754    -223.742
  C     -751.764    -188.780    -224.027
  N     -751.788    -187.547    -223.424
  N     -749.698    -189.792    -222.889
  C     -749.161    -190.980    -223.075
  N     -749.840    -191.710    -224.015
  O     -744.046    -193.045    -221.975
  O     -744.890    -195.024    -220.498
  H     -748.911    -192.724    -227.830
  H     -745.156    -195.957    -220.547
  H     -753.486    -190.452    -226.278
  H     -748.283    -191.350    -222.559
  H     -750.426    -193.557    -224.731
  H     -747.971    -192.009    -225.793
  H     -746.990    -194.065    -226.483
  H     -747.905    -195.568    -224.252
  H     -745.558    -194.745    -224.525
  H     -752.540    -186.902    -223.682
  H     -751.096    -187.311    -222.728
  H     -746.081    -193.106    -224.101
  P     -748.033    -196.369    -227.316
  C     -747.822    -194.958    -229.482
  O     -747.141    -195.740    -228.494
  O     -748.914    -197.505    -227.708
  O     -746.910    -196.852    -226.264
  H     -746.834    -197.820    -226.309
  H     -747.116    -194.601    -230.203
  H     -748.301    -194.126    -229.010
  H     -748.557    -195.563    -229.971

 6  7  8  9  10  11  12  13  14  15  25  28  32  33  34  35 0
 6-311+G(2d,p)
 ****
 36  39  40 0
 6-311+G(2d,p)
 ****
 1  2  3  4  5  16  17  18  19  20  21  22  23  24 0
 3-21G
 ****
 26  27  29  30  31  37  38  41  42  43  44  45  46  47 0
 3-21G
 ****
 48 0
 3-21G
 ****


