%nproc=1
%NoSave
%Mem=1900MB
#P OB98/GEN NMR

erre ene a

0 1
  C      122.366      -1.400       2.341
  O      121.846      -1.102       1.060
  H      121.635      -1.095       3.095
  H      123.294      -0.846       2.505
  H      122.550      -2.474       2.438
  P      122.684      -1.625      -0.200
  C      122.219      -1.862      -2.774
  O      121.720      -1.533      -1.484
  C      121.100      -1.752      -3.808
  O      120.001      -2.627      -3.483
  C      120.460      -0.377      -3.879
  O      121.303       0.590      -4.463
  C      119.219      -0.693      -4.700
  O      119.533      -0.791      -6.096
  C      118.821      -2.078      -4.130
  N      117.690      -2.001      -3.216
  C      116.434      -2.259      -3.779
  O      116.335      -2.541      -4.973
  N      115.323      -2.162      -2.979
  C      115.454      -1.860      -1.726
  N      114.314      -1.771      -0.990
  C      116.760      -1.607      -1.087
  C      117.824      -1.687      -1.884
  O      122.770      -3.199       0.065
  O      124.004      -0.958      -0.409
  H      118.715      -1.087      -6.541
  H      121.906      -3.617       0.214
  H      116.822      -1.367      -0.035
  H      118.819      -1.515      -1.496
  H      118.557      -2.766      -4.942
  H      118.453       0.078      -4.600
  H      120.130      -0.061      -2.881
  H      121.506      -2.058      -4.781
  H      113.435      -1.931      -1.466
  H      122.654      -2.866      -2.780
  H      114.290      -1.511      -0.016
  H      123.019      -1.153      -3.008
  P      120.760       2.066      -4.775
  C      121.617       4.466      -4.416
  O      121.856       3.082      -4.186
  O      119.362       2.335      -4.329
  O      120.978       2.212      -6.355
  H      121.902       2.122      -6.648
  H      122.407       5.041      -3.981
  H      120.685       4.746      -3.970
  H      121.579       4.651      -5.469

 6  7  8  9  10  11  12  13  14  15  16  26  30  31  32  33  35 0
 6-311+G(2d,p)
 ****
 37  38 0
 6-311+G(2d,p)
 ****
 1  2  3  4  5  17  18  19  20  21  22  23  24  25 0
 3-21G
 ****
 27  28  29  34  36  39  40  41  42  43  44  45  46 0
 3-21G
 ****


