%nproc=1
%NoSave
%Mem=1900MB
#P OB98/GEN NMR

erre ene a

0 1
  C     -565.005     388.426     244.142
  O     -565.766     389.583     244.403
  H     -564.043     388.516     244.652
  H     -564.822     388.331     243.066
  H     -565.519     387.533     244.516
  P     -567.286     389.607     243.879
  C     -566.607     390.655     241.600
  O     -567.220     389.565     242.278
  C     -566.709     390.471     240.088
  O     -565.750     389.465     239.674
  C     -568.100     390.020     239.613
  O     -568.396     390.675     238.376
  C     -567.930     388.525     239.369
  O     -568.863     388.012     238.418
  C     -566.458     388.456     238.924
  N     -565.900     387.118     239.152
  C     -565.784     386.294     238.030
  O     -566.153     386.691     236.916
  N     -565.307     385.019     238.199
  C     -565.061     384.580     239.386
  N     -564.622     383.293     239.481
  C     -565.233     385.393     240.608
  C     -565.643     386.644     240.416
  O     -567.761     391.103     244.194
  O     -568.184     388.586     244.492
  H     -568.846     388.591     237.625
  H     -568.714     391.136     244.396
  H     -565.037     384.968     241.582
  H     -565.803     387.316     241.248
  H     -566.368     388.701     237.858
  H     -568.066     387.981     240.311
  H     -568.891     390.226     240.337
  H     -566.425     391.411     239.605
  H     -564.526     382.757     238.629
  H     -565.554     390.696     241.887
  H     -564.432     382.827     240.372
  H     -567.088     391.590     241.907
  P     -569.211     392.057     238.468
  C     -571.557     391.139     239.124
  O     -570.400     391.861     239.531
  O     -569.963     392.135     237.059
  O     -568.344     393.248     238.704
  H     -569.560     392.831     236.505
  H     -572.253     391.094     239.935
  H     -571.276     390.146     238.839
  H     -572.012     391.634     238.291

 6  7  8  9  10  11  12  13  14  15  16  26  30  31  32  33  35 0
 6-311+G(2d,p)
 ****
 37  38 0
 6-311+G(2d,p)
 ****
 1  2  3  4  5  17  18  19  20  21  22  23  24  25 0
 3-21G
 ****
 27  28  29  34  36  39  40  41  42  43  44  45  46 0
 3-21G
 ****


