%nproc=1
%NoSave
%Mem=1900MB
#P OB98/GEN NMR

erre ene a

0 1
  C     -187.498     279.421     295.685
  O     -187.606     278.019     295.537
  H     -186.442     279.699     295.626
  H     -187.887     279.724     296.661
  H     -188.045     279.934     294.889
  P     -189.092     277.420     295.416
  C     -189.243     277.601     292.800
  O     -189.180     276.776     293.949
  C     -190.172     276.992     291.749
  O     -190.595     278.038     290.840
  C     -189.517     275.887     290.915
  O     -190.506     274.897     290.621
  C     -189.122     276.602     289.634
  O     -188.980     275.704     288.539
  C     -190.263     277.623     289.499
  N     -189.897     278.762     288.658
  C     -189.820     278.527     287.282
  O     -190.043     277.403     286.832
  N     -189.454     279.554     286.452
  C     -189.126     280.703     286.958
  N     -188.746     281.674     286.084
  C     -189.148     280.985     288.406
  C     -189.548     279.982     289.189
  O     -189.973     278.751     295.301
  O     -189.484     276.514     296.535
  H     -189.861     275.329     288.325
  H     -189.600     279.410     294.693
  H     -188.854     281.953     288.781
  H     -189.602     280.103     290.264
  H     -191.154     277.149     289.067
  H     -188.166     277.120     289.771
  H     -188.666     275.423     291.422
  H     -191.074     276.623     292.252
  H     -188.721     281.432     285.102
  H     -188.245     277.732     292.370
  H     -188.418     282.588     286.367
  H     -189.612     278.584     293.109
  P     -190.436     273.473     291.344
  C     -191.640     274.146     293.531
  O     -191.666     273.336     292.362
  O     -189.106     273.091     291.898
  O     -190.857     272.459     290.166
  H     -190.280     271.673     290.230
  H     -192.515     273.955     294.117
  H     -191.618     275.178     293.249
  H     -190.768     273.914     294.106

 6  7  8  9  10  11  12  13  14  15  16  26  30  31  32  33  35 0
 6-311+G(2d,p)
 ****
 37  38 0
 6-311+G(2d,p)
 ****
 1  2  3  4  5  17  18  19  20  21  22  23  24  25 0
 3-21G
 ****
 27  28  29  34  36  39  40  41  42  43  44  45  46 0
 3-21G
 ****


