%nproc=1
%NoSave
%Mem=1900MB
#P OB98/GEN NMR

erre ene a

0 1
  C     -481.238     138.524      96.220
  O     -480.310     137.887      97.076
  H     -480.749     138.740      95.269
  H     -481.578     139.465      96.664
  H     -482.096     137.870      96.038
  P     -480.844     137.467      98.530
  C     -478.642     138.481      99.475
  O     -480.056     138.385      99.584
  C     -478.218     139.942      99.569
  O     -478.906     140.716      98.558
  C     -478.569     140.603     100.894
  O     -477.664     140.260     101.927
  C     -478.524     142.074     100.510
  O     -477.182     142.582     100.546
  C     -479.048     142.061      99.070
  N     -482.382     144.918      96.466
  C     -481.079     144.632      96.250
  N     -480.263     143.848      96.988
  C     -480.927     143.315      98.026
  C     -482.256     143.513      98.369
  C     -483.001     144.356      97.528
  N     -484.320     144.670      97.760
  N     -482.566     142.825      99.523
  C     -481.451     142.217      99.871
  N     -480.435     142.479      98.994
  O     -480.206     136.013      98.740
  O     -482.328     137.451      98.679
  H     -476.895     142.529     101.480
  H     -480.879     135.332      98.550
  H     -480.630     145.099      95.378
  H     -481.325     141.587     100.745
  H     -478.473     142.723      98.413
  H     -479.123     142.672     101.194
  H     -479.598     140.349     101.182
  H     -477.139     140.007      99.374
  H     -478.327     138.071      98.509
  H     -478.185     137.893     100.276
  H     -484.773     145.337      97.157
  H     -484.758     144.349      98.614
  P     -478.246     139.460     103.192
  C     -478.111     141.632     104.631
  O     -478.903     140.541     104.174
  O     -476.936     138.981     103.975
  O     -479.136     138.316     102.844
  H     -477.089     138.102     104.375
  H     -478.698     142.255     105.273
  H     -477.773     142.203     103.792
  H     -477.267     141.258     105.171

 6  7  8  9  10  11  12  13  14  15  25  28  32  33  34  35 0
 6-311+G(2d,p)
 ****
 36  37  40 0
 6-311+G(2d,p)
 ****
 1  2  3  4  5  16  17  18  19  20  21  22  23  24 0
 3-21G
 ****
 26  27  29  30  31  38  39 41  42  43  44  45  46  47  48 0
 3-21G
 ****


