%nproc=1
%NoSave
%Mem=1900MB
#P OB98/GEN NMR

erre ene a

0 1
  C       66.469    -377.594      20.527
  O       65.261    -378.262      20.813
  H       66.236    -376.581      20.188
  H       66.998    -378.119      19.727
  H       67.110    -377.530      21.410
  P       65.304    -379.573      21.728
  C       65.616    -377.849      23.623
  O       65.919    -379.156      23.154
  C       65.407    -377.822      25.138
  O       65.311    -376.459      25.604
  C       64.107    -378.507      25.558
  O       64.182    -379.913      25.701
  C       63.820    -377.835      26.896
  O       64.518    -378.498      27.964
  C       64.368    -376.421      26.691
  N       60.867    -373.219      28.586
  C       61.683    -374.109      29.255
  N       61.503    -374.196      30.592
  N       62.579    -374.853      28.660
  C       62.580    -374.728      27.313
  C       61.809    -373.892      26.536
  C       60.858    -373.030      27.211
  O       60.105    -372.229      26.664
  N       62.096    -374.041      25.200
  C       62.979    -375.015      25.165
  N       63.328    -375.447      26.425
  O       66.487    -380.444      21.084
  O       64.028    -380.358      21.785
  H       64.394    -377.980      28.780
  H       66.343    -381.389      21.268
  H       60.216    -372.652      29.097
  H       63.422    -375.424      24.261
  H       64.916    -376.072      27.578
  H       62.754    -377.869      27.147
  H       60.750    -373.733      31.077
  H       63.300    -378.249      24.863
  H       61.887    -375.012      31.073
  H       66.278    -378.271      25.630
  H       64.702    -377.537      23.115
  H       66.404    -377.151      23.332
  P       62.846    -380.767      25.928
  C       62.636    -381.900      23.594
  O       62.146    -380.931      24.494
  O       61.895    -379.742      26.705
  O       63.032    -382.036      26.689
  H       61.943    -379.899      27.664
  H       62.059    -381.875      22.693
  H       62.561    -382.870      24.039
  H       63.660    -381.690      23.367

 6  7  8  9  10  11  12  13  14  15  26  29  33  34 0
 6-311+G(2d,p)
 ****
 36  38  39  40  41 0
 6-311+G(2d,p)
 ****
 1  2  3  4  5  16  17  18  19  20  21  22  23  24  25 0
 3-21G
 ****
 27  28  30  31  32  35  37  42  43  44  45  46  47 0
 3-21G
 ****
 48  49 0
 3-21G
 ****


