%nproc=1
%NoSave
%Mem=1900MB
#P OB98/GEN NMR

erre ene a

0 1
  C       82.923     397.391     574.982
  O       82.968     397.152     573.586
  P       83.285     395.681     572.997
  C       85.775     395.596     572.280
  O       84.834     395.433     573.342
  C       86.897     394.571     572.417
  O       87.644     394.816     573.624
  C       86.414     393.124     572.521
  O       86.012     392.623     571.250
  C       87.646     392.459     573.139
  O       88.628     392.205     572.127
  C       88.144     393.550     574.097
  N       87.748     393.315     575.492
  C       88.378     392.262     576.153
  O       89.236     391.568     575.582
  N       88.064     392.011     577.467
  C       87.159     392.745     578.062
  N       86.930     392.499     579.378
  C       86.422     393.831     577.383
  C       86.773     394.066     576.114
  O       82.920     395.487     571.570
  O       82.541     394.682     573.999
  H       88.334     391.399     571.652
  H       81.602     394.498     573.755
  H       85.673     394.400     577.917
  H       86.290     394.855     575.548
  H       89.242     393.625     574.056
  H       87.422     391.504     573.634
  H       85.566     393.053     573.218
  H       87.567     394.686     571.559
  H       87.571     391.868     579.844
  H       86.200     396.603     572.353
  H       86.487     393.189     579.980
  H       85.256     395.497     571.323
  P       84.576     391.917     571.160
  C       85.421     389.464     571.325
  O       84.716     390.521     571.954
  O       84.482     391.485     569.624
  O       83.431     392.775     571.582
  H       83.923     392.110     569.114
  H       85.641     388.692     572.080
  H       86.370     389.827     570.907
  H       84.801     389.020     570.528
  H       82.700     398.422     575.160
  H       83.871     397.151     575.416
  H       82.164     396.780     575.424

 3  4  5  6  7  8  9  10  11  12  13  23  27  28  29  30  32 0
 6-311+G(2d,p)
 ****
 34  35 0
 6-311+G(2d,p)
 ****
 1  2  14  15  16  17  18  19  20  21  22  24  25  26 0
 3-21G
 ****
 31  33  36  37  38  39  40  41  42  43  44  45  46 0
 3-21G
 ****


