%nproc=1
%NoSave
%Mem=1900MB
#P OB98/GEN NMR

erre ene a

0 1
  C      702.497    -626.494    -110.055
  O      702.188    -626.431    -108.683
  H      702.888    -627.494    -110.281
  H      703.260    -625.758    -110.309
  H      701.599    -626.325    -110.663
  P      701.418    -625.111    -108.179
  C      702.020    -622.599    -107.923
  O      702.480    -623.913    -108.216
  C      703.130    -621.782    -107.260
  O      704.335    -621.845    -108.051
  C      702.794    -620.300    -107.090
  O      702.008    -620.066    -105.936
  C      704.197    -619.719    -106.936
  O      704.682    -619.981    -105.603
  C      704.995    -620.545    -107.951
  N      708.059    -619.094    -111.731
  C      708.370    -619.668    -110.505
  N      709.682    -619.877    -110.244
  N      707.465    -620.003    -109.610
  C      706.199    -619.734    -110.004
  C      705.775    -619.169    -111.195
  C      706.779    -618.810    -112.174
  O      706.564    -618.327    -113.278
  N      704.406    -619.063    -111.237
  C      704.015    -619.527    -110.073
  N      705.058    -619.942    -109.282
  O      701.208    -625.378    -106.611
  O      700.119    -624.836    -108.865
  H      704.061    -619.551    -104.991
  H      700.345    -625.007    -106.345
  H      708.797    -618.848    -112.369
  H      702.975    -619.596    -109.750
  H      706.026    -620.726    -107.638
  H      704.220    -618.646    -107.086
  H      710.413    -619.590    -110.861
  H      702.326    -619.887    -107.990
  H      709.923    -620.319    -109.358
  H      703.351    -622.241    -106.293
  H      701.160    -622.663    -107.246
  H      701.707    -622.128    -108.860
  P      701.088    -618.745    -105.917
  C      701.682    -616.219    -106.115
  O      702.107    -617.518    -105.727
  O      700.352    -618.841    -104.510
  O      700.139    -618.617    -107.055
  H      699.521    -618.310    -104.529
  H      702.467    -615.516    -105.927
  H      700.815    -615.944    -105.552
  H      701.444    -616.218    -107.158

 6  7  8  9  10  11  12  13  14  15  26  29  33  34 0
 6-311+G(2d,p)
 ****
 36  38  39  40  41 0
 6-311+G(2d,p)
 ****
 1  2  3  4  5  16  17  18  19  20  21  22  23  24  25 0
 3-21G
 ****
 27  28  30  31  32  35  37  42  43  44  45  46  47 0
 3-21G
 ****
 48  49 0
 3-21G
 ****


