%nproc=1
%NoSave
%Mem=1900MB
#P OB98/GEN NMR

erre ene a

0 1
  C      233.503    -249.125     424.345
  O      234.742    -249.845     424.446
  P      235.149    -250.510     425.855
  C      236.459    -249.853     428.012
  O      236.120    -249.529     426.672
  C      237.466    -248.845     428.591
  O      238.723    -248.908     427.850
  C      236.996    -247.380     428.549
  O      237.556    -246.726     429.696
  C      237.657    -246.862     427.280
  O      237.748    -245.449     427.237
  C      239.002    -247.582     427.360
  N      239.735    -247.639     426.090
  C      240.853    -246.825     425.942
  O      241.237    -246.019     426.785
  N      241.519    -246.947     424.748
  C      241.167    -247.753     423.707
  O      241.787    -247.790     422.655
  C      239.957    -248.564     423.910
  C      239.310    -248.472     425.073
  O      236.148    -251.678     425.399
  O      234.012    -251.083     426.642
  H      238.440    -245.181     427.870
  H      235.926    -252.500     425.866
  H      242.342    -246.380     424.630
  H      239.646    -249.218     423.102
  H      238.423    -249.071     425.247
  H      239.634    -247.092     428.116
  H      237.068    -247.186     426.411
  H      235.907    -247.278     428.542
  H      237.693    -249.142     429.620
  H      236.901    -250.850     428.044
  H      235.544    -249.864     428.618
  P      236.732    -246.787     431.079
  C      235.128    -245.091     432.258
  O      236.209    -245.302     431.383
  O      237.940    -246.968     432.121
  O      235.721    -247.875     431.150
  H      238.687    -246.368     431.942
  H      235.180    -245.742     433.132
  H      234.184    -245.267     431.726
  H      235.147    -244.049     432.600
  H      233.388    -248.751     423.349
  H      233.509    -248.307     425.035
  H      232.690    -249.781     424.576

 3  4  5  6  7  8  9  10  11  12  13  23  28  29  30  31  32 0
 6-311+G(2d,p)
 ****
 33  34 0
 6-311+G(2d,p)
 ****
 1  2  14  15  16  17  18  19  20  21  22  24  25  26 0
 3-21G
 ****
 27  35  36  37  38  39  40  41  42  43  44  45 0
 3-21G
 ****


