%nproc=1
%NoSave
%Mem=1900MB
#P OB98/GEN NMR

erre ene a

0 1
  C       78.708    -518.398     475.333
  O       78.661    -519.491     474.443
  H       79.731    -518.286     475.696
  H       78.051    -518.598     476.187
  H       78.402    -517.471     474.843
  P       77.421    -519.615     473.440
  C       74.894    -520.115     473.605
  O       76.125    -520.010     474.306
  C       73.806    -520.778     474.455
  O       74.209    -522.121     474.811
  C       73.574    -520.043     475.774
  O       72.690    -518.938     475.703
  C       72.992    -521.155     476.653
  O       71.575    -521.273     476.459
  C       73.711    -522.401     476.139
  N       75.226    -525.290     480.068
  C       73.954    -525.116     479.560
  N       72.953    -525.748     480.215
  N       73.693    -524.376     478.512
  C       74.778    -523.735     478.018
  C       76.088    -523.817     478.448
  C       76.372    -524.684     479.575
  O       77.484    -524.866     480.070
  N       76.911    -523.020     477.697
  C       76.102    -522.401     476.863
  N       74.799    -522.824     477.001
  O       77.721    -520.972     472.634
  O       77.235    -518.461     472.500
  H       71.154    -520.442     476.755
  H       77.293    -520.938     471.760
  H       75.371    -525.896     480.858
  H       76.406    -521.664     476.126
  H       73.023    -523.256     476.047
  H       73.149    -520.953     477.712
  H       73.091    -526.232     481.089
  H       74.525    -519.727     476.210
  H       71.996    -525.435     480.039
  H       72.883    -520.863     473.867
  H       75.086    -520.713     472.715
  H       74.561    -519.126     473.269
  P       72.898    -517.681     476.668
  C       71.401    -516.615     478.521
  O       71.779    -517.780     477.815
  O       72.404    -516.455     475.765
  O       74.290    -517.488     477.157
  H       73.176    -516.024     475.337
  H       70.650    -516.863     479.242
  H       71.011    -515.893     477.835
  H       72.255    -516.208     479.021

 6  7  8  9  10  11  12  13  14  15  26  29  33  34 0
 6-311+G(2d,p)
 ****
 36  38  39  40  41 0
 6-311+G(2d,p)
 ****
 1  2  3  4  5  16  17  18  19  20  21  22  23  24  25 0
 3-21G
 ****
 27  28  30  31  32  35  37  42  43  44  45  46  47 0
 3-21G
 ****
 48  49 0
 3-21G
 ****


