%nproc=1
%NoSave
%Mem=1900MB
#P OB98/GEN NMR

erre ene a

0 1
  C      175.598    -191.979      24.909
  O      176.111    -192.130      23.600
  H      174.797    -192.702      25.086
  H      176.402    -192.163      25.626
  H      175.220    -190.963      25.055
  P      175.086    -191.890      22.389
  C      176.808    -190.201      21.419
  O      175.971    -191.325      21.174
  C      177.312    -189.642      20.094
  O      178.315    -190.521      19.534
  C      176.239    -189.502      19.021
  O      175.471    -188.324      19.183
  C      177.100    -189.432      17.772
  O      177.680    -188.119      17.655
  C      178.189    -190.466      18.083
  N      180.116    -194.642      15.841
  C      180.675    -193.465      16.186
  N      180.094    -192.401      16.776
  C      178.793    -192.639      17.007
  C      178.081    -193.789      16.705
  C      178.799    -194.832      16.094
  N      178.229    -196.030      15.727
  N      176.754    -193.649      17.062
  C      176.679    -192.449      17.603
  N      177.881    -191.795      17.584
  O      174.247    -190.608      22.853
  O      174.211    -193.049      22.039
  H      178.294    -188.017      18.407
  H      173.402    -190.566      22.366
  H      181.735    -193.364      15.959
  H      175.780    -192.011      18.017
  H      179.167    -190.185      17.679
  H      176.541    -189.618      16.854
  H      175.602    -190.393      18.968
  H      177.794    -188.675      20.294
  H      177.658    -190.512      22.030
  H      178.783    -196.630      15.137
  H      177.226    -196.118      15.777
  H      176.235    -189.441      21.961
  P      174.038    -188.272      18.461
  C      172.993    -186.299      19.799
  O      173.548    -186.748      18.564
  O      173.085    -189.041      19.490
  O      174.004    -188.874      17.094
  H      172.323    -189.440      19.026
  H      172.715    -185.269      19.712
  H      173.719    -186.408      20.577
  H      172.128    -186.883      20.035

 6  7  8  9  10  11  12  13  14  15  25  28  32  33  34  35 0
 6-311+G(2d,p)
 ****
 36  39  40 0
 6-311+G(2d,p)
 ****
 1  2  3  4  5  16  17  18  19  20  21  22  23  24 0
 3-21G
 ****
 26  27  29  30  31  37  38  41  42  43  44  45  46  47 0
 3-21G
 ****
 48 0
 3-21G
 ****


