%nproc=1
%NoSave
%Mem=1900MB
#P OB98/GEN NMR

erre ene a

0 1
  C     -285.810     438.140    -133.202
  O     -285.923     438.158    -131.788
  P     -286.760     439.357    -131.128
  C     -288.133     437.678    -129.691
  O     -288.154     438.718    -130.666
  C     -289.247     436.674    -129.960
  O     -289.080     436.087    -131.262
  C     -289.275     435.508    -128.984
  O     -289.848     435.893    -127.753
  C     -290.104     434.489    -129.761
  O     -291.510     434.689    -129.533
  C     -289.732     434.796    -131.229
  N     -288.890     433.768    -131.825
  C     -289.570     432.666    -132.361
  O     -290.803     432.604    -132.298
  N     -288.834     431.648    -132.918
  C     -287.541     431.726    -132.933
  N     -286.864     430.688    -133.501
  C     -286.787     432.856    -132.353
  C     -287.517     433.830    -131.818
  O     -287.160     440.256    -132.389
  O     -286.023     440.135    -130.086
  H     -291.667     434.419    -128.608
  H     -287.300     441.188    -132.125
  H     -285.706     432.866    -132.389
  H     -287.051     434.697    -131.369
  H     -290.637     434.890    -131.844
  H     -289.878     433.462    -129.461
  H     -288.261     435.111    -128.828
  H     -290.209     437.211    -129.946
  H     -287.409     429.922    -133.881
  H     -288.282     438.113    -128.702
  H     -285.853     430.664    -133.581
  H     -287.153     437.190    -129.715
  P     -288.863     436.338    -126.576
  C     -290.009     438.608    -126.246
  O     -288.830     437.940    -126.649
  O     -287.426     435.947    -127.174
  O     -289.092     435.737    -125.229
  H     -286.735     436.081    -126.498
  H     -289.803     439.682    -126.191
  H     -290.332     438.263    -125.266
  H     -290.807     438.439    -126.982
  H     -285.230     437.292    -133.503
  H     -285.329     439.037    -133.533
  H     -286.786     438.077    -133.637

 3  4  5  6  7  8  9  10  11  12  13  21  23  27  28  29  30  32 0
 6-311+G(2d,p)
 ****
 34  35 0
 6-311+G(2d,p)
 ****
 1  2  14  15  16  17  18  19  20  22  24  25  26 0
 3-21G
 ****
 31  33  36  37  38  39  40  41  42  43  44  45  46 0
 3-21G
 ****


