%nproc=1
%NoSave
%Mem=1900MB
#P OB98/GEN NMR

erre ene a

0 1
  C     -189.795    -475.983     195.980
  O     -189.560    -477.385     195.808
  P     -188.729    -478.113     196.973
  C     -187.483    -479.736     195.370
  O     -188.367    -479.597     196.472
  C     -187.439    -481.184     194.887
  O     -187.108    -482.113     195.956
  C     -188.753    -481.676     194.310
  O     -188.900    -481.210     192.981
  C     -188.592    -483.193     194.398
  O     -187.857    -483.704     193.267
  C     -187.792    -483.360     195.693
  N     -189.787    -487.246     198.289
  C     -189.168    -487.232     197.050
  N     -189.043    -488.416     196.427
  N     -188.714    -486.148     196.482
  C     -188.904    -485.020     197.214
  C     -189.482    -484.909     198.461
  C     -189.987    -486.127     199.083
  O     -190.521    -486.198     200.186
  N     -189.441    -483.623     198.921
  C     -188.963    -482.935     197.898
  N     -188.561    -483.749     196.863
  O     -189.821    -478.345     198.115
  O     -187.580    -477.306     197.470
  H     -187.209    -483.036     192.990
  H     -189.642    -477.760     198.879
  H     -190.133    -488.108     198.666
  H     -188.860    -481.860     197.870
  H     -187.010    -484.130     195.578
  H     -189.564    -483.699     194.400
  H     -189.371    -489.303     196.813
  H     -189.591    -481.340     194.937
  H     -188.579    -488.430     195.520
  H     -186.638    -481.262     194.137
  H     -186.474    -479.414     195.656
  H     -187.810    -479.066     194.562
  P     -190.269    -480.481     192.579
  C     -189.900    -480.722     190.015
  O     -190.072    -479.847     191.112
  O     -190.321    -479.213     193.546
  O     -191.489    -481.341     192.747
  H     -191.208    -479.121     193.926
  H     -190.287    -480.245     189.116
  H     -190.414    -481.681     190.161
  H     -188.823    -480.918     189.865
  H     -190.354    -475.610     195.147
  H     -188.858    -475.469     196.040
  H     -190.348    -475.822     196.882

 3  4  5  6  7  8  9  10  11  12  23  26  30  31 0
 6-311+G(2d,p)
 ****
 33  35  36  37  38 0
 6-311+G(2d,p)
 ****
 1  2  13  14  15  16  17  18  19  20  21  22  24  25 0
 3-21G
 ****
 27  28  29  32  34  39  40  41  42  43  44  45  46  47  48  49 0
 3-21G
 ****


