%nproc=1
%NoSave
%Mem=1900MB
#P OB98/GEN NMR

erre ene a

0 1
  C      -23.559      42.789     288.940
  O      -23.996      43.027     287.615
  H      -22.995      43.660     289.287
  H      -22.904      41.914     288.984
  H      -24.418      42.640     289.600
  P      -24.714      41.830     286.827
  C      -23.848      39.443     286.338
  O      -23.539      40.831     286.399
  C      -22.613      38.616     286.685
  O      -22.012      39.105     287.903
  C      -22.927      37.148     286.937
  O      -23.152      36.464     285.720
  C      -21.694      36.721     287.710
  O      -20.589      36.470     286.831
  C      -21.431      37.968     288.585
  N      -21.972      37.836     289.934
  C      -21.234      37.043     290.816
  O      -20.189      36.505     290.448
  N      -21.715      36.860     292.090
  C      -22.818      37.430     292.455
  N      -23.239      37.209     293.729
  C      -23.622      38.284     291.559
  C      -23.147      38.439     290.325
  O      -25.636      42.215     285.711
  O      -25.474      41.023     287.983
  H      -19.790      36.503     287.392
  H      -26.374      41.376     288.111
  H      -24.533      38.746     291.908
  H      -23.673      39.055     289.604
  H      -20.355      38.163     288.666
  H      -21.874      35.813     288.282
  H      -23.793      37.056     287.600
  H      -21.880      38.731     285.877
  H      -22.662      36.606     294.305
  H      -24.170      39.228     285.314
  H      -24.032      37.668     294.148
  H      -24.670      39.199     287.020
  P      -23.908      35.049     285.708
  C      -23.704      32.972     287.223
  O      -23.032      34.090     286.654
  O      -24.219      34.505     284.356
  O      -25.213      35.329     286.597
  H      -25.877      35.867     286.103
  H      -23.020      32.415     287.828
  H      -24.080      32.346     286.441
  H      -24.517      33.315     287.828

 6  7  8  9  10  11  12  13  14  15  16  26  30  31  32  33  35 0
 6-311+G(2d,p)
 ****
 37  38 0
 6-311+G(2d,p)
 ****
 1  2  3  4  5  17  18  19  20  21  22  23  24  25 0
 3-21G
 ****
 27  28  29  34  36  39  40  41  42  43  44  45  46 0
 3-21G
 ****


