%nproc=1
%NoSave
%Mem=1900MB
#P OB98/GEN NMR

erre ene a

0 1
  C      -96.916    -468.294    -333.071
  O      -95.993    -468.370    -334.142
  P      -95.914    -467.112    -335.139
  C      -97.600    -467.677    -337.042
  O      -96.246    -467.666    -336.607
  C      -97.661    -467.851    -338.558
  O      -97.057    -466.720    -339.214
  C      -96.923    -469.074    -339.085
  O      -97.654    -470.263    -338.841
  C      -96.782    -468.701    -340.562
  O      -98.016    -468.950    -341.250
  C      -96.513    -467.186    -340.480
  N      -92.246    -467.608    -343.278
  C      -93.499    -468.078    -343.468
  N      -94.576    -467.940    -342.666
  C      -94.271    -467.230    -341.571
  C      -93.034    -466.707    -341.231
  C      -91.985    -466.917    -342.140
  N      -90.710    -466.440    -341.937
  N      -93.092    -466.059    -340.015
  C      -94.348    -466.179    -339.629
  N      -95.101    -466.865    -340.542
  O      -94.346    -466.797    -335.207
  O      -96.708    -465.920    -334.708
  H      -98.069    -469.912    -341.410
  H      -94.189    -465.837    -335.300
  H      -93.659    -468.628    -344.387
  H      -94.756    -465.785    -338.711
  H      -97.015    -466.624    -341.277
  H      -95.996    -469.264    -341.075
  H      -95.929    -469.148    -338.624
  H      -98.723    -467.891    -338.851
  H      -98.075    -466.730    -336.778
  H      -89.989    -466.758    -342.567
  H      -90.484    -466.049    -341.034
  H      -98.128    -468.488    -336.531
  P      -96.886    -471.459    -338.092
  C      -95.881    -472.144    -340.350
  O      -96.661    -472.557    -339.245
  O      -98.068    -472.102    -337.223
  O      -95.672    -471.046    -337.335
  H      -98.867    -472.258    -337.752
  H      -95.767    -472.994    -341.029
  H      -94.897    -471.811    -340.021
  H      -96.387    -471.336    -340.888
  H      -96.864    -469.192    -332.491
  H      -97.906    -468.178    -333.461
  H      -96.676    -467.455    -332.452

 3  4  5  6  7  8  9  10  11  12  22  25  29  30  31  32 0
 6-311+G(2d,p)
 ****
 33  36  37 0
 6-311+G(2d,p)
 ****
 1  2  13  14  15  16  17  18  19  20  21  23  24  26 0
 3-21G
 ****
 27  28  34  35  38  39  40  41  42  43  44  45  46  47  48 0
 3-21G
 ****


