%nproc=1
%NoSave
%Mem=1900MB
#P OB98/GEN NMR

erre ene a

0 1
  C     -305.472     245.313     283.098
  O     -304.484     246.085     282.408
  P     -304.313     247.622     282.833
  C     -301.881     247.876     283.702
  O     -303.251     247.710     284.033
  C     -301.096     248.506     284.862
  O     -301.503     249.887     285.072
  C     -301.292     247.782     286.198
  O     -300.096     247.933     286.971
  C     -302.397     248.588     286.852
  O     -302.451     248.367     288.261
  C     -302.001     249.999     286.420
  N     -304.124     253.661     289.159
  C     -303.006     252.893     289.414
  N     -302.334     253.166     290.553
  N     -302.581     251.943     288.622
  C     -303.334     251.808     287.504
  C     -304.466     252.501     287.141
  C     -304.937     253.532     288.038
  O     -305.929     254.234     287.869
  N     -304.960     252.057     285.941
  C     -304.133     251.094     285.584
  N     -303.110     250.930     286.480
  O     -305.709     247.953     283.546
  O     -304.062     248.543     281.685
  H     -303.213     248.881     288.608
  H     -306.240     248.536     282.975
  H     -304.412     254.374     289.808
  H     -304.227     250.488     284.696
  H     -301.200     250.415     287.046
  H     -303.369     248.306     286.424
  H     -302.577     253.919     291.179
  H     -301.537     246.719     286.113
  H     -301.487     252.646     290.744
  H     -300.033     248.515     284.601
  H     -301.782     248.506     282.814
  H     -301.464     246.903     283.421
  P     -298.875     246.958     286.617
  C     -297.374     249.072     286.507
  O     -297.776     247.866     285.888
  O     -299.452     246.046     285.434
  O     -298.378     246.141     287.762
  H     -298.981     245.195     285.403
  H     -296.392     248.927     286.964
  H     -298.086     249.401     287.268
  H     -297.297     249.850     285.742
  H     -305.476     244.314     282.714
  H     -306.436     245.755     282.952
  H     -305.243     245.293     284.143

 3  4  5  6  7  8  9  10  11  12  23  26  30  31 0
 6-311+G(2d,p)
 ****
 33  35  36  37  38 0
 6-311+G(2d,p)
 ****
 1  2  13  14  15  16  17  18  19  20  21  22  24  25 0
 3-21G
 ****
 27  28  29  32  34  39  40  41  42  43  44  45  46  47  48  49 0
 3-21G
 ****


