%nproc=1
%NoSave
%Mem=1900MB
#P OB98/GEN NMR

erre ene a

0 1
  C      -77.611     148.452      51.721
  O      -78.090     147.140      51.942
  H      -78.243     149.151      52.273
  H      -77.656     148.703      50.658
  H      -76.584     148.549      52.084
  P      -77.354     145.925      51.204
  C      -77.091     145.145      48.755
  O      -77.691     146.081      49.643
  C      -77.000     145.733      47.350
  O      -76.026     146.793      47.310
  C      -76.587     144.729      46.275
  O      -77.700     143.957      45.857
  C      -76.090     145.670      45.191
  O      -77.215     146.260      44.509
  C      -75.358     146.744      46.018
  N      -70.631     148.025      44.689
  C      -71.840     148.415      44.146
  N      -71.780     149.239      43.078
  N      -73.002     148.022      44.600
  C      -72.907     147.146      45.626
  C      -71.770     146.672      46.238
  C      -70.492     147.166      45.768
  O      -69.398     146.864      46.238
  N      -72.065     145.723      47.183
  C      -73.383     145.662      47.179
  N      -73.943     146.502      46.243
  O      -77.632     144.557      51.750
  O      -75.801     146.298      51.281
  H      -77.779     145.527      44.199
  H      -75.384     145.910      52.072
  H      -69.767     148.354      44.292
  H      -73.980     145.037      47.831
  H      -75.441     147.739      45.567
  H      -75.483     145.168      44.437
  H      -70.921     149.454      42.593
  H      -75.754     144.102      46.610
  H      -72.654     149.488      42.631
  H      -77.974     146.182      47.111
  H      -77.715     144.247      48.754
  H      -76.090     144.875      49.105
  P      -77.511     142.564      45.077
  C      -76.171     142.017      42.933
  O      -76.969     142.964      43.621
  O      -78.710     141.681      45.075
  O      -76.217     141.910      45.744
  H      -76.423     141.397      46.565
  H      -75.883     142.416      41.983
  H      -76.731     141.117      42.787
  H      -75.296     141.802      43.510

 6  7  8  9  10  11  12  13  14  15  26  29  33  34 0
 6-311+G(2d,p)
 ****
 36  38  39  40  41 0
 6-311+G(2d,p)
 ****
 1  2  3  4  5  16  17  18  19  20  21  22  23  24  25 0
 3-21G
 ****
 27  28  30  31  32  35  37  42  43  44  45  46  47 0
 3-21G
 ****
 48  49 0
 3-21G
 ****


