%nproc=1
%NoSave
%Mem=1900MB
#P OB98/GEN NMR

erre ene a

0 1
  C      101.570     -63.774      -6.085
  O      102.810     -64.384      -6.385
  H      101.082     -64.308      -5.267
  H      101.754     -62.742      -5.774
  H      100.922     -63.767      -6.966
  P      102.755     -65.852      -7.030
  C      102.050     -65.303      -9.471
  O      103.103     -65.658      -8.587
  C      102.607     -64.959     -10.853
  O      103.563     -63.875     -10.716
  C      103.327     -66.130     -11.530
  O      103.032     -66.107     -12.928
  C      104.796     -65.819     -11.305
  O      105.632     -66.425     -12.284
  C      104.792     -64.294     -11.340
  N      109.124     -61.652     -11.903
  C      108.141     -61.970     -12.771
  N      107.012     -62.674     -12.539
  C      106.931     -63.019     -11.242
  C      107.853     -62.769     -10.241
  C      109.005     -62.056     -10.616
  N      110.028     -61.759      -9.746
  N      107.430     -63.317      -9.044
  C      106.273     -63.886      -9.322
  N      105.933     -63.735     -10.637
  O      101.182     -66.165      -7.033
  O      103.533     -66.904      -6.318
  H      105.125     -66.496     -13.119
  H      100.906     -66.448      -6.141
  H      108.280     -61.618     -13.790
  H      105.654     -64.422      -8.617
  H      104.815     -63.896     -12.363
  H      105.105     -66.185     -10.319
  H      103.043     -67.098     -11.114
  H      101.788     -64.582     -11.477
  H      101.521     -64.435      -9.064
  H      110.842     -61.294     -10.113
  H      109.985     -62.106      -8.798
  H      101.350     -66.141      -9.553
  P      101.830     -67.045     -13.429
  C       99.643     -65.890     -12.656
  O      100.550     -66.123     -13.723
  O      101.420     -67.857     -12.112
  O      102.216     -67.967     -14.540
  H      101.373     -68.811     -12.310
  H       98.845     -65.264     -12.996
  H      100.156     -65.408     -11.850
  H       99.244     -66.823     -12.317

 6  7  8  9  10  11  12  13  14  15  25  28  32  33  34  35 0
 6-311+G(2d,p)
 ****
 36  39  40 0
 6-311+G(2d,p)
 ****
 1  2  3  4  5  16  17  18  19  20  21  22  23  24 0
 3-21G
 ****
 26  27  29  30  31  37  38  41  42  43  44  45  46  47 0
 3-21G
 ****
 48 0
 3-21G
 ****


