%nproc=1
%NoSave
%Mem=1900MB
#P OB98/GEN NMR

erre ene a

0 1
  C      -18.661     109.451     183.732
  O      -19.177     110.203     182.656
  P      -18.188     110.862     181.574
  C      -16.149     112.416     181.775
  O      -17.400     112.029     182.339
  C      -15.448     113.417     182.690
  O      -15.162     112.832     183.993
  C      -14.088     113.876     182.184
  O      -14.056     114.640     181.000
  C      -13.501     114.511     183.436
  O      -13.993     115.839     183.618
  C      -14.047     113.570     184.540
  N      -13.012     112.672     185.057
  C      -12.803     112.722     186.432
  O      -13.433     113.456     187.195
  N      -11.819     111.904     186.911
  C      -11.004     111.101     186.166
  O      -10.104     110.427     186.661
  C      -11.258     111.108     184.718
  C      -12.235     111.884     184.238
  O      -18.837     111.278     180.298
  O      -17.048     109.744     181.390
  H      -14.930     115.773     183.868
  H      -16.566     109.522     182.203
  H      -11.633     111.931     187.907
  H      -10.634     110.473     184.100
  H      -12.445     111.906     183.171
  H      -14.441     114.158     185.380
  H      -12.410     114.574     183.388
  H      -13.483     112.979     181.967
  H      -16.123     114.262     182.859
  H      -16.333     112.886     180.803
  H      -15.527     111.526     181.606
  P      -12.705     115.041     180.243
  C      -10.508     115.913     181.296
  O      -11.901     116.081     181.149
  O      -12.827     115.342     178.781
  O      -11.832     113.705     180.414
  H      -11.242     113.600     179.647
  H      -10.131     116.678     181.985
  H      -10.002     116.030     180.339
  H      -10.283     114.929     181.722
  H      -19.468     109.097     184.339
  H      -18.015     110.068     184.321
  H      -18.109     108.617     183.352

 3  4  5  6  7  8  9  10  11  12  13  23  28  29  30  31  32 0
 6-311+G(2d,p)
 ****
 33  34 0
 6-311+G(2d,p)
 ****
 1  2  14  15  16  17  18  19  20  21  22  24  25  26  27 0
 3-21G
 ****
 35  36  37  38  39  40  41  42  43  44  45 0
 3-21G
 ****


