%nproc=1
%NoSave
%Mem=1900MB
#P OB98/GEN NMR

erre ene a

0 1
  C     1301.772    -628.346    -581.805
  O     1303.025    -627.998    -581.230
  P     1303.000    -627.188    -579.845
  C     1302.342    -624.788    -580.626
  O     1303.390    -625.669    -580.232
  C     1302.846    -623.359    -580.748
  O     1303.246    -622.846    -579.468
  C     1304.090    -623.222    -581.641
  O     1303.753    -623.165    -583.030
  C     1304.619    -621.874    -581.172
  O     1303.859    -620.814    -581.786
  C     1304.340    -621.912    -579.668
  N     1307.471    -620.663    -575.831
  C     1306.466    -619.981    -576.435
  N     1305.684    -620.388    -577.440
  C     1306.049    -621.597    -577.889
  C     1307.085    -622.386    -577.400
  C     1307.807    -621.877    -576.305
  N     1308.816    -622.574    -575.685
  N     1307.150    -623.572    -578.106
  C     1306.205    -623.507    -578.975
  N     1305.481    -622.346    -578.886
  O     1304.310    -627.716    -579.083
  O     1301.768    -627.359    -579.023
  H     1304.135    -620.766    -582.723
  H     1304.214    -627.574    -578.121
  H     1306.265    -618.991    -576.037
  H     1305.948    -624.294    -579.704
  H     1304.012    -620.954    -579.269
  H     1305.670    -621.702    -581.446
  H     1304.836    -623.995    -581.426
  H     1302.028    -622.730    -581.132
  H     1301.543    -624.815    -579.867
  H     1309.165    -622.223    -574.804
  H     1308.925    -623.557    -575.901
  H     1301.910    -625.133    -581.573
  P     1304.499    -624.236    -583.976
  C     1306.609    -622.758    -584.302
  O     1305.475    -623.347    -584.899
  O     1303.330    -624.671    -584.986
  O     1305.104    -625.392    -583.259
  H     1303.516    -625.569    -585.339
  H     1307.319    -622.480    -585.078
  H     1307.103    -623.443    -583.606
  H     1306.311    -621.847    -583.760
  H     1301.934    -628.879    -582.719
  H     1301.212    -627.456    -582.006
  H     1301.226    -628.965    -581.123

 3  4  5  6  7  8  9  10  11  12  22  25  29  30  31  32 0
 6-311+G(2d,p)
 ****
 33  36  37 0
 6-311+G(2d,p)
 ****
 1  2  13  14  15  16  17  18  19  20  21  23  24  26 0
 3-21G
 ****
 27  28  34  35  38  39  40  41  42  43  44  45  46  47  48 0
 3-21G
 ****


