%nproc=1
%NoSave
%Mem=1900MB
#P OB98/GEN NMR

erre ene a

0 1
  C      137.481     -62.638      78.829
  O      136.721     -62.397      79.996
  H      137.292     -61.831      78.115
  H      137.192     -63.586      78.368
  H      138.549     -62.650      79.065
  P      136.762     -63.483      81.171
  C      134.786     -64.567      79.902
  O      135.333     -64.208      81.166
  C      133.671     -65.596      80.073
  O      133.185     -66.026      78.785
  C      134.100     -66.865      80.799
  O      134.227     -66.627      82.186
  C      132.979     -67.809      80.398
  O      131.796     -67.563      81.173
  C      132.756     -67.402      78.919
  N      133.458     -68.259      77.968
  C      133.069     -69.603      77.949
  O      132.193     -70.007      78.713
  N      133.698     -70.454      77.073
  C      134.599     -69.999      76.261
  N      135.182     -70.891      75.416
  C      135.014     -68.583      76.226
  C      134.418     -67.780      77.104
  O      137.199     -62.986      82.515
  O      137.746     -64.617      80.614
  H      131.153     -68.254      80.914
  H      138.657     -64.462      80.925
  H      135.764     -68.245      75.525
  H      134.665     -66.724      77.145
  H      131.687     -67.426      78.673
  H      133.245     -68.856      80.544
  H      135.038     -67.245      80.378
  H      132.837     -65.108      80.594
  H      134.850     -71.850      75.462
  H      135.602     -64.991      79.307
  H      135.769     -70.626      74.639
  H      134.405     -63.681      79.380
  P      135.409     -67.286      83.047
  C      134.070     -69.374      83.727
  O      134.686     -68.175      84.171
  O      136.429     -66.329      83.561
  O      136.014     -68.397      82.067
  H      136.590     -67.975      81.381
  H      133.625     -69.876      84.561
  H      134.806     -70.009      83.280
  H      133.314     -69.141      83.006

 6  7  8  9  10  11  12  13  14  15  16  26  30  31  32  33  35 0
 6-311+G(2d,p)
 ****
 37  38 0
 6-311+G(2d,p)
 ****
 1  2  3  4  5  17  18  19  20  21  22  23  24  25 0
 3-21G
 ****
 27  28  29  34  36  39  40  41  42  43  44  45  46 0
 3-21G
 ****


