%nproc=1
%NoSave
%Mem=1900MB
#P OB98/GEN NMR

erre ene a

0 1
  C     -147.864    -181.373     180.329
  O     -148.196    -180.022     180.576
  H     -148.773    -181.976     180.261
  H     -147.327    -181.436     179.379
  H     -147.220    -181.756     181.125
  P     -149.011    -179.727     181.928
  C     -148.143    -177.291     181.799
  O     -149.269    -178.140     181.974
  C     -147.796    -177.184     180.316
  O     -148.941    -176.623     179.623
  C     -146.575    -176.294     180.020
  O     -145.651    -176.977     179.164
  C     -147.154    -175.112     179.264
  O     -146.272    -174.603     178.270
  C     -148.427    -175.690     178.663
  N     -149.617    -171.928     175.433
  C     -148.821    -173.010     175.288
  N     -148.623    -174.027     176.152
  C     -149.376    -173.869     177.253
  C     -150.252    -172.832     177.532
  C     -150.344    -171.814     176.567
  N     -151.112    -170.683     176.739
  N     -150.844    -173.008     178.769
  C     -150.303    -174.110     179.247
  N     -149.399    -174.657     178.373
  O     -147.917    -179.965     183.074
  O     -150.212    -180.586     182.129
  H     -145.986    -175.357     177.721
  H     -148.220    -180.692     183.651
  H     -148.263    -173.065     174.356
  H     -150.491    -174.528     180.228
  H     -148.224    -176.240     177.733
  H     -147.376    -174.308     179.977
  H     -146.058    -175.973     180.930
  H     -147.640    -178.194     179.918
  H     -147.284    -177.704     182.337
  H     -151.029    -169.951     176.052
  H     -151.568    -170.541     177.629
  H     -148.374    -176.303     182.211
  P     -144.561    -177.907     179.895
  C     -143.283    -178.974     177.901
  O     -143.271    -178.004     178.941
  O     -145.216    -179.365     179.816
  O     -144.283    -177.511     181.306
  H     -145.297    -179.744     180.713
  H     -142.365    -178.921     177.354
  H     -144.103    -178.780     177.242
  H     -143.390    -179.950     178.325

 6  7  8  9  10  11  12  13  14  15  25  28  32  33  34  35 0
 6-311+G(2d,p)
 ****
 36  39  40 0
 6-311+G(2d,p)
 ****
 1  2  3  4  5  16  17  18  19  20  21  22  23  24 0
 3-21G
 ****
 26  27  29  30  31  37  38  41  42  43  44  45  46  47  48 0
 3-21G
 ****


