%nproc=1
%NoSave
%Mem=1900MB
#P OB98/GEN NMR

erre ene a

0 1
  C     -249.754     862.308     -73.290
  O     -248.867     863.323     -73.781
  P     -249.345     864.555     -74.696
  C     -247.866     865.142     -76.739
  O     -248.043     865.242     -75.330
  C     -246.645     865.937     -77.194
  O     -246.798     867.336     -76.854
  C     -245.332     865.537     -76.539
  O     -244.833     864.308     -77.030
  C     -244.452     866.745     -76.874
  O     -243.878     866.631     -78.182
  C     -245.472     867.908     -76.849
  N     -245.289     868.797     -75.712
  C     -244.675     870.023     -75.974
  O     -244.243     870.280     -77.095
  N     -244.557     870.929     -74.945
  C     -244.913     870.590     -73.747
  N     -244.789     871.538     -72.769
  C     -245.439     869.255     -73.402
  C     -245.599     868.416     -74.423
  O     -250.254     865.514     -73.992
  O     -250.080     863.882     -75.950
  H     -250.737     864.507     -76.316
  H     -244.624     866.529     -78.811
  H     -245.687     869.004     -72.382
  H     -245.996     867.421     -74.267
  H     -245.402     868.488     -77.776
  H     -243.626     866.864     -76.167
  H     -245.473     865.479     -75.456
  H     -246.570     865.847     -78.287
  H     -244.434     872.442     -73.045
  H     -248.762     865.554     -77.227
  H     -245.058     871.386     -71.812
  H     -247.778     864.086     -77.017
  P     -243.851     863.482     -76.064
  C     -242.156     862.819     -77.920
  O     -243.100     862.385     -76.955
  O     -244.849     862.620     -75.154
  O     -242.950     864.336     -75.225
  H     -244.512     862.591     -74.237
  H     -241.418     862.030     -78.068
  H     -241.637     863.727     -77.593
  H     -242.664     863.020     -78.861
  H     -249.200     861.601     -72.708
  H     -250.214     861.807     -74.116
  H     -250.509     862.759     -72.680

 3  4  5  6  7  8  9  10  11  12  13  24  27  28  29  30  32 0
 6-311+G(2d,p)
 ****
 34  35 0
 6-311+G(2d,p)
 ****
 1  2  14  15  16  17  18  19  20  21  22  23  25  26 0
 3-21G
 ****
 31  33  36  37  38  39  40  41  42  43  44  45  46 0
 3-21G
 ****


