%nproc=1
%NoSave
%Mem=1900MB
#P OB98/GEN NMR

erre ene a

0 1
  C      570.746    -241.923     492.453
  O      570.770    -241.672     493.855
  P      570.035    -240.328     494.364
  C      567.842    -241.396     495.302
  O      568.456    -240.597     494.282
  C      567.142    -240.539     496.339
  O      566.028    -239.820     495.748
  C      566.568    -241.291     497.514
  O      567.552    -241.617     498.471
  C      565.593    -240.269     498.082
  O      566.297    -239.353     498.932
  C      565.078    -239.573     496.817
  N      560.066    -239.043     497.404
  C      561.115    -238.385     498.037
  N      560.762    -237.431     498.944
  N      562.364    -238.634     497.811
  C      562.563    -239.602     496.872
  C      561.610    -240.322     496.183
  C      560.229    -240.061     496.463
  O      559.250    -240.628     495.961
  N      562.194    -241.210     495.298
  C      563.478    -240.987     495.445
  N      563.766    -240.037     496.393
  O      570.284    -239.296     493.147
  O      570.534    -239.814     495.663
  H      566.718    -239.898     499.629
  H      570.286    -238.398     493.492
  H      559.100    -238.815     497.630
  H      564.252    -241.496     494.875
  H      565.031    -238.477     496.950
  H      564.805    -240.735     498.705
  H      559.821    -237.117     499.121
  H      566.011    -242.186     497.179
  H      561.502    -236.906     499.372
  H      567.887    -239.773     496.679
  H      568.609    -242.010     495.788
  H      567.131    -242.082     494.813
  P      567.206    -242.761     499.543
  C      568.024    -244.633     497.909
  O      566.965    -244.103     498.679
  O      565.744    -242.355     500.041
  O      568.187    -242.890     500.667
  H      565.583    -242.659     500.963
  H      568.972    -244.582     498.458
  H      568.132    -244.040     496.971
  H      567.815    -245.660     497.644
  H      571.263    -242.837     492.245
  H      571.226    -241.117     491.938
  H      569.732    -242.004     492.122

 3  4  5  6  7  8  9  10  11  12  23  26  30  31  33  0
 6-311+G(2d,p)
 ****
 35  36  37  38 0
 6-311+G(2d,p)
 ****
 1  2  13  14  15  16  17  18  19  20  21  22  24  25  27  28  29 0
 3-21G
 ****
 32  34  39  40  41  42  43  44  45  46  47  48  49 0
 3-21G
 ****


