%nproc=1
%NoSave
%Mem=1900MB
#P OB98/GEN NMR

erre ene a

0 1
  C      192.908     582.993     474.333
  O      191.894     583.201     473.369
  P      190.355     583.036     473.775
  C      189.897     580.547     474.199
  O      189.869     581.601     473.251
  C      189.062     579.363     473.704
  O      187.694     579.769     473.492
  C      189.535     578.787     472.373
  O      190.689     577.987     472.545
  C      188.288     578.026     471.927
  O      188.228     576.739     472.569
  C      187.164     578.930     472.435
  N      183.836     579.039     468.568
  C      184.304     578.026     469.327
  N      185.222     578.074     470.318
  C      185.687     579.328     470.476
  C      185.326     580.455     469.762
  C      184.326     580.285     468.776
  N      183.802     581.321     468.038
  N      186.041     581.552     470.192
  C      186.821     581.094     471.153
  N      186.593     579.765     471.399
  O      189.474     584.186     473.412
  O      190.404     582.839     475.363
  H      187.390     576.322     472.306
  H      189.898     583.560     475.793
  H      183.878     577.044     469.120
  H      187.551     581.675     471.701
  H      186.343     578.350     472.881
  H      188.267     577.855     470.849
  H      189.726     579.604     471.663
  H      189.068     578.587     474.484
  H      189.490     580.913     475.148
  H      183.000     581.120     467.466
  H      183.937     582.271     468.381
  H      190.932     580.226     474.365
  P      192.071     578.434     471.868
  C      191.190     577.981     469.497
  O      192.167     577.658     470.471
  O      193.283     578.338     472.733
  O      191.801     579.947     471.417
  H      192.632     580.454     471.457
  H      190.253     577.478     469.742
  H      191.536     577.634     468.525
  H      191.032     579.061     469.451
  H      193.866     583.147     473.882
  H      192.846     581.992     474.706
  H      192.779     583.683     475.141

 3  4  5  6  7  8  9  10  11  12  22  25  29  30  31  32 0
 6-311+G(2d,p)
 ****
 33  36  37 0
 6-311+G(2d,p)
 ****
 1  2  13  14  15  16  17  18  19  20  21  23  24  26 0
 3-21G
 ****
 27  28  34  35  38  39  40  41  42  43  44  45  46  47  48 0
 3-21G
 ****


