%nproc=1
%NoSave
%Mem=1900MB
#P OB98/GEN NMR

erre ene a

0 1
  C       -8.018     274.183     246.893
  O       -8.139     275.409     247.589
  P       -9.373     276.394     247.292
  C      -10.518     276.982     245.055
  O       -9.286     276.722     245.719
  C      -10.278     277.419     243.612
  O       -9.624     276.373     242.868
  C      -11.547     277.744     242.841
  O      -12.045     279.020     243.212
  C      -11.054     277.653     241.405
  O      -10.404     278.868     240.995
  C      -10.036     276.491     241.488
  N      -10.577     275.239     240.972
  C      -10.136     274.860     239.702
  O       -9.365     275.587     239.065
  N      -10.625     273.697     239.153
  C      -11.488     272.984     239.812
  N      -11.938     271.852     239.215
  C      -11.996     273.371     241.145
  C      -11.507     274.496     241.661
  O       -9.474     277.577     248.190
  O      -10.643     275.420     247.379
  H       -9.516     278.849     241.409
  H      -10.852     275.180     248.316
  H      -12.725     272.752     241.654
  H      -11.833     274.851     242.630
  H       -9.130     276.731     240.916
  H      -11.869     277.470     240.697
  H      -12.302     276.970     243.023
  H       -9.609     278.295     243.627
  H      -11.582     271.646     238.290
  H      -11.040     277.782     245.594
  H      -12.637     271.249     239.624
  H      -11.143     276.081     245.091
  P      -13.509     279.472     242.750
  C      -14.825     279.315     240.556
  O      -13.547     279.442     241.150
  O      -14.021     280.727     243.380
  O      -14.431     278.222     243.159
  H      -15.245     278.550     243.577
  H      -14.759     279.640     239.514
  H      -15.562     279.934     241.074
  H      -15.139     278.270     240.583
  H       -7.140     273.670     247.225
  H       -7.944     274.375     245.843
  H       -8.879     273.577     247.085

 3  4  5  6  7  8  9  10  11  12  13  23  27  28  29  30  32 0
 6-311+G(2d,p)
 ****
 34  35 0
 6-311+G(2d,p)
 ****
 1  2  14  15  16  17  18  19  20  21  22  24  25  26 0
 3-21G
 ****
 31  33  36  37  38  39  40  41  42  43  44  45  46 0
 3-21G
 ****


