%nproc=1
%NoSave
%Mem=1900MB
#P OB98/GEN NMR

erre ene a

0 1
  C     -183.770    -267.668     471.054
  O     -183.276    -268.925     470.630
  H     -184.854    -267.656     470.926
  H     -183.332    -266.873     470.446
  H     -183.535    -267.504     472.112
  P     -181.720    -269.218     470.905
  C     -180.393    -270.047     473.011
  O     -181.642    -269.796     472.397
  C     -180.228    -271.540     473.309
  O     -181.179    -271.918     474.337
  C     -180.468    -272.440     472.097
  O     -179.575    -273.553     472.176
  C     -181.894    -272.924     472.294
  O     -182.149    -274.144     471.604
  C     -181.965    -273.015     473.830
  N     -183.342    -272.967     474.324
  C     -183.711    -273.942     475.253
  O     -182.899    -274.801     475.608
  N     -184.997    -273.958     475.732
  C     -185.859    -273.108     475.267
  N     -187.128    -273.187     475.759
  C     -185.529    -272.086     474.253
  C     -184.262    -272.069     473.837
  O     -181.126    -267.737     471.038
  O     -181.055    -270.055     469.861
  H     -181.447    -274.789     471.843
  H     -181.674    -267.149     471.585
  H     -186.287    -271.409     473.890
  H     -183.929    -271.345     473.099
  H     -181.506    -273.945     474.180
  H     -182.601    -272.175     471.923
  H     -180.324    -271.916     471.147
  H     -179.227    -271.702     473.729
  H     -187.321    -273.916     476.436
  H     -180.304    -269.481     473.944
  H     -187.895    -272.618     475.433
  H     -179.605    -269.705     472.332
  P     -178.136    -273.464     471.486
  C     -176.324    -271.624     471.323
  O     -177.307    -272.252     472.136
  O     -178.126    -273.512     469.994
  O     -177.375    -274.751     472.079
  H     -176.858    -275.152     471.358
  H     -175.851    -270.840     471.876
  H     -176.791    -271.214     470.451
  H     -175.590    -272.345     471.029

 6  7  8  9  10  11  12  13  14  15  16  26  30  31  32  33  35 0
 6-311+G(2d,p)
 ****
 37  38 0
 6-311+G(2d,p)
 ****
 1  2  3  4  5  17  18  19  20  21  22  23  24  25 0
 3-21G
 ****
 27  28  29  34  36  39  40  41  42  43  44  45  46 0
 3-21G
 ****


