%nproc=1
%NoSave
%Mem=1900MB
#P OB98/GEN NMR

erre ene a

0 1
  C        1.089     -36.023     217.939
  O        2.357     -35.987     217.312
  P        3.397     -37.194     217.479
  C        3.479     -39.626     216.682
  O        2.643     -38.556     217.096
  C        2.788     -40.977     216.864
  O        2.794     -41.336     218.273
  C        1.333     -41.011     216.376
  O        1.114     -42.297     215.782
  C        0.539     -40.877     217.661
  O       -0.789     -41.370     217.532
  C        1.433     -41.651     218.634
  N        1.163     -41.318     220.025
  C        0.214     -42.100     220.688
  O       -0.442     -42.934     220.069
  N        0.031     -41.901     222.034
  C        0.601     -40.887     222.617
  N        0.444     -40.766     223.963
  C        1.410     -39.891     221.885
  C        1.685     -40.190     220.614
  O        4.120     -37.231     218.786
  O        4.427     -36.998     216.263
  H        5.337     -36.982     216.619
  H       -1.235     -40.894     216.799
  H        1.761     -39.001     222.384
  H        2.297     -39.536     220.001
  H        1.305     -42.734     218.499
  H        0.484     -39.819     217.950
  H        1.115     -40.233     215.641
  H        3.380     -41.739     216.335
  H       -0.081     -41.490     224.437
  H        4.389     -39.606     217.286
  H        1.091     -40.221     224.535
  H        3.778     -39.485     215.635
  P       -0.042     -42.437     214.672
  C       -0.220     -41.886     212.142
  O        0.431     -41.629     213.370
  O       -1.183     -41.475     215.268
  O       -0.598     -43.807     214.456
  H       -2.051     -41.763     214.932
  H        0.269     -41.302     211.360
  H       -1.270     -41.585     212.197
  H       -0.152     -42.946     211.883
  H        0.550     -35.129     217.705
  H        1.217     -36.095     218.999
  H        0.541     -36.872     217.588

 3  4  5  6  7  8  9  10  11  12  13  24  27  28  29  30  32 0
 6-311+G(2d,p)
 ****
 34  35 0
 6-311+G(2d,p)
 ****
 1  2  14  15  16  17  18  19  20  21  22  23  25  26 0
 3-21G
 ****
 31  33  36  37  38  39  40  41  42  43  44  45  46 0
 3-21G
 ****


