%nproc=1
%NoSave
%Mem=1900MB
#P OB98/GEN NMR

erre ene a

0 1
  C     -179.703     166.118     970.669
  O     -180.633     166.891     969.937
  H     -179.370     166.694     971.534
  H     -178.832     165.880     970.048
  H     -180.180     165.195     971.018
  P     -181.174     166.270     968.564
  C     -183.522     165.644     969.482
  O     -182.770     166.436     968.570
  C     -184.101     166.546     970.571
  O     -183.046     166.955     971.480
  C     -184.720     167.835     970.059
  O     -186.022     167.645     969.516
  C     -184.730     168.677     971.315
  O     -185.890     168.414     972.121
  C     -183.439     168.234     972.030
  N     -182.381     169.234     971.909
  C     -182.393     170.241     972.867
  O     -183.221     170.310     973.773
  N     -181.424     171.201     972.732
  C     -180.506     171.272     971.720
  O     -179.695     172.197     971.629
  C     -180.555     170.190     970.725
  C     -181.478     169.239     970.861
  O     -180.954     164.697     968.759
  O     -180.498     166.777     967.331
  H     -180.196     164.401     968.217
  H     -185.886     169.090     972.822
  H     -181.410     171.937     973.420
  H     -179.848     170.222     969.914
  H     -181.546     168.430     970.138
  H     -183.632     168.067     973.100
  H     -184.739     169.739     971.071
  H     -184.053     168.302     969.317
  H     -184.841     165.967     971.148
  H     -182.870     164.899     969.948
  H     -184.319     165.126     968.935
  P     -186.590     168.769     968.525
  C     -186.518     167.770     966.087
  O     -187.246     167.973     967.292
  O     -185.222     169.375     967.949
  O     -187.481     169.750     969.207
  H     -184.509     168.721     967.959
  H     -187.122     167.223     965.393
  H     -185.627     167.216     966.298
  H     -186.257     168.718     965.664

 6  7  8  9  10  11  12  13  14  15  16  27  31  32  33  34  35 0
 6-311+G(2d,p)
 ****
 36  37 0
 6-311+G(2d,p)
 ****
 1  2  3  4  5  17  18  19  20  21  22  23  24  25 0
 3-21G
 ****
 26  28  29  30  38  39  40  41  42  43  44  45 0
 3-21G
 ****


