%nproc=1
%NoSave
%Mem=1900MB
#P OB98/GEN NMR

erre ene a

0 1
  C      510.005    -134.115     -61.816
  O      509.124    -133.027     -62.054
  P      509.742    -131.546     -62.001
  C      508.873    -131.321     -59.524
  O      509.952    -131.217     -60.450
  C      508.506    -129.937     -58.985
  O      509.675    -129.083     -58.989
  C      507.463    -129.184     -59.808
  O      506.149    -129.674     -59.564
  C      507.704    -127.752     -59.352
  O      507.064    -127.509     -58.087
  C      509.239    -127.725     -59.190
  N      509.938    -127.103     -60.315
  C      509.775    -125.730     -60.459
  O      509.088    -125.038     -59.693
  N      510.413    -125.162     -61.535
  C      511.124    -125.830     -62.491
  O      511.638    -125.275     -63.452
  C      511.228    -127.283     -62.304
  C      510.644    -127.845     -61.248
  O      508.461    -130.681     -62.434
  O      510.948    -131.379     -62.871
  H      507.626    -131.131     -62.204
  H      507.404    -126.646     -57.768
  H      510.332    -124.159     -61.647
  H      511.786    -127.850     -63.049
  H      510.695    -128.918     -61.095
  H      509.510    -127.177     -58.271
  H      507.316    -127.009     -60.066
  H      507.695    -129.277     -60.873
  H      508.169    -130.051     -57.943
  H      509.167    -131.971     -58.701
  H      508.012    -131.773     -60.030
  P      505.152    -129.699     -60.824
  C      503.767    -127.574     -60.193
  O      504.683    -128.187     -61.071
  O      503.863    -130.408     -60.179
  O      505.707    -130.406     -62.014
  H      503.661    -130.083     -59.284
  H      503.853    -126.487     -60.298
  H      503.960    -127.843     -59.153
  H      502.752    -127.870     -60.462
  H      509.462    -135.035     -61.882
  H      510.431    -134.022     -60.839
  H      510.786    -134.108     -62.548

 3  4  5  6  7  8  9  10  11  12  13  24  28  29  30  31  32 0
 6-311+G(2d,p)
 ****
 33  34 0
 6-311+G(2d,p)
 ****
 1  2  14  15  16  17  18  19  20  21  22  23  25  26  27 0
 3-21G
 ****
 35  36  37  38  39  40  41  42  43  44  45 0
 3-21G
 ****


