%nproc=1
%NoSave
%Mem=1900MB
#P OB98/GEN NMR

erre ene a

0 1
  C     -201.203     243.170    -207.601
  O     -199.877     243.700    -207.673
  P     -199.239     244.047    -209.101
  C     -196.761     243.843    -208.375
  O     -197.786     244.696    -208.891
  C     -195.503     244.668    -208.077
  O     -195.211     245.602    -209.150
  C     -195.643     245.538    -206.834
  O     -195.694     244.867    -205.590
  C     -194.537     246.555    -207.032
  O     -193.275     246.063    -206.597
  C     -194.556     246.746    -208.565
  N     -195.202     247.995    -208.978
  C     -194.507     249.165    -208.680
  O     -193.439     249.184    -208.073
  N     -195.112     250.328    -209.081
  C     -196.320     250.431    -209.703
  O     -196.825     251.504    -210.022
  C     -197.013     249.165    -209.969
  C     -196.432     248.019    -209.598
  O     -200.133     244.784    -210.046
  O     -198.886     242.593    -209.692
  H     -192.588     246.675    -206.925
  H     -199.112     242.594    -210.641
  H     -194.622     251.190    -208.881
  H     -197.984     249.209    -210.456
  H     -196.927     247.070    -209.783
  H     -193.529     246.757    -208.962
  H     -194.729     247.476    -206.460
  H     -196.597     246.081    -206.913
  H     -194.652     243.985    -207.992
  H     -196.537     243.061    -209.100
  H     -197.133     243.345    -207.477
  P     -197.065     244.425    -204.889
  C     -196.243     244.929    -202.480
  O     -196.741     243.966    -203.383
  O     -197.997     243.566    -205.679
  O     -197.770     245.858    -204.645
  H     -198.741     245.734    -204.725
  H     -196.066     244.441    -201.514
  H     -196.970     245.728    -202.341
  H     -195.299     245.343    -202.845
  H     -201.464     242.999    -206.577
  H     -201.248     242.246    -208.139
  H     -201.890     243.868    -208.032

 3  4  5  6  7  8  9  10  11  12  13  23  28  29  30  31  32 0
 6-311+G(2d,p)
 ****
 33  34 0
 6-311+G(2d,p)
 ****
 1  2  14  15  16  17  18  19  20  21  22  24  25  26  27 0
 3-21G
 ****
 35  36  37  38  39  40  41  42  43  44  45 0
 3-21G
 ****


