%nproc=1
%NoSave
%Mem=1900MB
#P OB98/GEN NMR

erre ene a

0 1
  C      -15.018     -56.131      69.441
  O      -14.966     -54.733      69.256
  H      -15.481     -56.587      68.562
  H      -15.631     -56.363      70.317
  H      -14.014     -56.547      69.566
  P      -14.057     -53.894      70.275
  C      -15.823     -53.051      71.972
  O      -14.771     -53.966      71.715
  C      -16.430     -53.309      73.353
  O      -17.109     -54.592      73.330
  C      -15.393     -53.350      74.483
  O      -15.953     -52.732      75.646
  C      -15.206     -54.838      74.738
  O      -14.760     -55.115      76.064
  C      -16.599     -55.374      74.426
  N      -15.527     -59.970      76.195
  C      -15.552     -58.749      76.841
  N      -15.237     -58.750      78.153
  N      -15.860     -57.623      76.248
  C      -16.189     -57.780      74.943
  C      -16.198     -58.931      74.190
  C      -15.827     -60.167      74.851
  O      -15.764     -61.276      74.328
  N      -16.555     -58.673      72.891
  C      -16.762     -57.369      72.860
  N      -16.559     -56.785      74.080
  O      -14.294     -52.379      69.813
  O      -12.604     -54.243      70.274
  H      -14.648     -56.089      76.139
  H      -13.458     -52.001      69.479
  H      -15.270     -60.805      76.697
  H      -17.050     -56.799      71.985
  H      -17.289     -55.267      75.275
  H      -14.467     -55.241      74.037
  H      -15.037     -59.585      78.684
  H      -14.455     -52.856      74.225
  H      -15.284     -57.871      78.657
  H      -17.194     -52.548      73.548
  H      -16.598     -53.175      71.206
  H      -15.436     -52.027      71.922
  P      -15.806     -51.136      75.763
  C      -14.924     -51.229      78.198
  O      -14.679     -50.814      76.861
  O      -17.168     -50.695      76.480
  O      -15.633     -50.448      74.449
  H      -17.749     -50.242      75.839
  H      -14.096     -50.951      78.815
  H      -15.048     -52.291      78.225
  H      -15.813     -50.757      78.561

 6  7  8  9  10  11  12  13  14  15  26  29  33  34 0
 6-311+G(2d,p)
 ****
 36  38  39  40  41 0
 6-311+G(2d,p)
 ****
 1  2  3  4  5  16  17  18  19  20  21  22  23  24  25 0
 3-21G
 ****
 27  28  30  31  32  35  37  42  43  44  45  46  47 0
 3-21G
 ****
 48  49 0
 3-21G
 ****


