%nproc=1
%NoSave
%Mem=1900MB
#P OB98/GEN NMR

erre ene a

0 1
  C       14.353    -441.920      27.591
  O       13.860    -442.915      26.717
  H       14.172    -442.239      28.620
  H       13.834    -440.974      27.418
  H       15.428    -441.786      27.449
  P       14.048    -442.660      25.138
  C       11.921    -441.186      24.888
  O       13.340    -441.245      24.859
  C       11.415    -440.009      24.043
  O        9.977    -440.095      23.919
  C       11.751    -438.640      24.653
  O       12.194    -437.764      23.614
  C       10.436    -438.161      25.239
  O       10.366    -436.737      25.313
  C        9.411    -438.828      24.312
  N        8.116    -439.009      24.966
  C        7.307    -437.870      25.088
  O        7.699    -436.779      24.659
  N        6.101    -437.981      25.732
  C        5.758    -439.107      26.266
  N        4.559    -439.148      26.912
  C        6.602    -440.319      26.211
  C        7.752    -440.198      25.549
  O       13.047    -443.720      24.485
  O       15.450    -442.763      24.640
  H        9.545    -436.500      25.802
  H       13.214    -443.827      23.517
  H        6.282    -441.231      26.688
  H        8.437    -441.036      25.460
  H        9.260    -438.225      23.405
  H       10.326    -438.555      26.256
  H       12.520    -438.693      25.422
  H       11.829    -440.103      23.028
  H        4.013    -438.292      26.944
  H       11.589    -441.063      25.927
  H        4.209    -439.966      27.394
  H       11.515    -442.123      24.485
  P       13.789    -437.612      23.456
  C       14.057    -435.638      25.124
  O       14.357    -437.002      24.829
  O       13.948    -436.413      22.400
  O       14.465    -438.862      23.004
  H       14.123    -436.766      21.509
  H       14.496    -435.371      26.062
  H       12.996    -435.510      25.178
  H       14.454    -435.011      24.353

 6  7  8  9  10  11  12  13  14  15  16  26  30  31  32  33  35 0
 6-311+G(2d,p)
 ****
 37  38 0
 6-311+G(2d,p)
 ****
 1  2  3  4  5  17  18  19  20  21  22  23  24  25 0
 3-21G
 ****
 27  28  29  34  36  39  40  41  42  43  44  45  46 0
 3-21G
 ****


