%nproc=1
%NoSave
%Mem=1900MB
#P OB98/GEN NMR

erre ene a

0 1
  C       68.817    -389.828    -242.098
  O       68.510    -390.112    -243.464
  P       69.699    -390.546    -244.459
  C       69.023    -389.135    -246.494
  O       69.175    -390.447    -245.970
  C       68.060    -389.087    -247.692
  O       68.712    -389.602    -248.894
  C       66.771    -389.896    -247.505
  O       65.724    -389.171    -248.166
  C       67.075    -391.194    -248.228
  O       65.900    -391.927    -248.554
  C       67.872    -390.647    -249.426
  N       68.655    -391.686    -250.085
  C       67.947    -392.710    -250.723
  O       66.721    -392.773    -250.623
  N       68.653    -393.654    -251.422
  C       69.955    -393.650    -251.370
  N       70.619    -394.598    -252.107
  C       70.731    -392.696    -250.560
  C       70.025    -391.731    -249.977
  O       70.396    -391.826    -244.107
  O       70.716    -389.301    -244.362
  H       66.154    -392.753    -249.024
  H       71.636    -389.636    -244.436
  H       71.806    -392.788    -250.478
  H       70.496    -390.978    -249.364
  H       67.201    -390.191    -250.163
  H       67.712    -391.830    -247.595
  H       66.495    -390.035    -246.453
  H       67.806    -388.037    -247.893
  H       70.081    -395.262    -252.636
  H       70.001    -388.759    -246.808
  H       71.624    -394.633    -252.145
  H       68.680    -388.460    -245.690
  P       64.675    -388.330    -247.289
  C       62.855    -390.063    -246.633
  O       63.237    -388.994    -247.472
  O       64.537    -386.973    -248.146
  O       65.110    -387.996    -245.894
  H       64.260    -386.254    -247.552
  H       61.758    -390.195    -246.706
  H       63.110    -389.861    -245.593
  H       63.340    -390.988    -246.958
  H       67.921    -389.557    -241.580
  H       69.515    -389.018    -242.050
  H       69.245    -390.695    -241.641

 3  4  5  6  7  8  9  10  11  12  13  23  27  28  29  30  32 0
 6-311+G(2d,p)
 ****
 34  35 0
 6-311+G(2d,p)
 ****
 1  2  14  15  16  17  18  19  20  21  22  24  25  26 0
 3-21G
 ****
 31  33  36  37  38  39  40  41  42  43  44  45  46 0
 3-21G
 ****


