%nproc=1
%NoSave
%Mem=1900MB
#P OB98/GEN NMR

erre ene a

0 1
  C       72.710     647.628     162.091
  O       71.931     646.814     162.977
  P       70.660     646.054     162.369
  C       68.576     647.112     163.526
  O       69.413     647.059     162.377
  C       67.367     648.024     163.279
  O       67.732     649.413     163.265
  C       66.676     647.768     161.957
  O       65.790     646.662     162.026
  C       65.900     649.069     161.766
  O       64.693     649.029     162.566
  C       66.872     650.106     162.327
  N       69.460     654.360     161.140
  C       68.721     654.029     162.222
  N       68.045     652.881     162.459
  C       68.210     652.024     161.438
  C       68.927     652.221     160.277
  C       69.584     653.456     160.135
  N       70.337     653.785     159.038
  N       68.860     651.110     159.458
  C       68.111     650.250     160.118
  N       67.691     650.754     161.326
  O       70.284     644.996     163.518
  O       70.927     645.370     161.069
  H       64.973     649.099     163.502
  H       69.945     644.177     163.113
  H       68.661     654.787     163.000
  H       67.860     649.246     159.783
  H       66.359     650.897     162.900
  H       65.592     649.232     160.727
  H       67.415     647.651     161.138
  H       66.654     647.864     164.110
  H       69.147     647.476     164.388
  H       70.804     654.688     159.024
  H       70.459     653.106     158.300
  H       68.251     646.091     163.787
  P       66.121     645.381     161.121
  C       65.364     646.699     159.019
  O       66.378     645.947     159.637
  O       64.720     644.631     161.026
  O       67.191     644.506     161.674
  H       64.859     643.670     160.931
  H       65.794     647.253     158.176
  H       64.910     647.424     159.713
  H       64.583     646.029     158.640
  H       73.520     648.070     162.632
  H       72.093     648.399     161.680
  H       73.099     647.022     161.299

 3  4  5  6  7  8  9  10  11  12  22  25  29  30  31  32 0
 6-311+G(2d,p)
 ****
 33  36  37 0
 6-311+G(2d,p)
 ****
 1  2  13  14  15  16  17  18  19  20  21  23  24  26 0
 3-21G
 ****
 27  28  34  35  38  39  40  41  42  43  44  45  46  47  48 0
 3-21G
 ****


