%nproc=1
%NoSave
%Mem=1900MB
#P OB98/GEN NMR

erre ene a

0 1
  C      129.988     -55.732     -20.292
  O      129.947     -54.325     -20.168
  P      129.805     -53.339     -21.417
  C      128.149     -51.720     -20.239
  O      128.372     -52.613     -21.324
  C      126.660     -51.435     -19.994
  O      126.020     -52.625     -19.489
  C      126.499     -50.365     -18.908
  O      126.588     -48.994     -19.241
  C      125.238     -50.759     -18.148
  O      124.088     -50.027     -18.578
  C      125.078     -52.246     -18.473
  N      123.328     -53.625     -13.918
  C      122.698     -52.894     -14.907
  N      121.535     -52.301     -14.556
  N      123.178     -52.742     -16.114
  C      124.397     -53.311     -16.284
  C      125.110     -54.071     -15.386
  C      124.547     -54.265     -14.071
  O      125.112     -54.836     -13.139
  N      126.340     -54.425     -15.881
  C      126.389     -53.848     -17.065
  N      125.249     -53.128     -17.336
  O      130.259     -53.862     -22.741
  O      130.814     -52.151     -20.996
  H      124.228     -49.088     -18.350
  H      131.220     -51.808     -21.815
  H      122.944     -53.642     -12.981
  H      127.233     -53.890     -17.743
  H      124.079     -52.446     -18.885
  H      125.351     -50.556     -17.077
  H      121.209     -52.276     -13.600
  H      127.316     -50.517     -18.191
  H      121.134     -51.624     -15.195
  H      126.145     -51.194     -20.929
  H      128.689     -50.793     -20.461
  H      128.589     -52.135     -19.327
  P      127.715     -47.969     -18.749
  C      128.343     -46.891     -20.984
  O      128.762     -47.758     -19.942
  O      128.564     -48.800     -17.674
  O      127.194     -46.709     -18.137
  H      129.029     -48.187     -17.076
  H      128.975     -47.055     -21.859
  H      128.448     -45.851     -20.657
  H      127.299     -47.083     -21.255
  H      130.086     -56.173     -19.322
  H      130.824     -56.012     -20.898
  H      129.084     -56.076     -20.750

 3  4  5  6  7  8  9  10  11  12  23  26  30  31 0
 6-311+G(2d,p)
 ****
 33  35  36  37  38 0
 6-311+G(2d,p)
 ****
 1  2  13  14  15  16  17  18  19  20  21  22  24  25 0
 3-21G
 ****
 27  28  29  32  34  39  40  41  42  43  44  45  46  47  48  49 0
 3-21G
 ****


