%nproc=1
%NoSave
%Mem=1900MB
#P OB98/GEN NMR

erre ene a

0 1
  C      -73.248     191.152    -522.221
  O      -72.802     191.213    -523.572
  P      -71.369     190.571    -523.912
  C      -70.519     193.016    -524.136
  O      -70.296     191.721    -523.586
  C      -69.343     193.431    -525.019
  O      -68.236     193.862    -524.205
  C      -68.792     192.322    -525.905
  O      -69.559     192.155    -527.092
  C      -67.417     192.872    -526.235
  O      -67.520     193.864    -527.275
  C      -67.010     193.528    -524.910
  N      -62.293     191.689    -524.194
  C      -62.817     192.465    -525.166
  N      -64.086     192.904    -525.293
  C      -64.855     192.424    -524.297
  C      -64.466     191.594    -523.259
  C      -63.111     191.225    -523.217
  N      -62.574     190.452    -522.213
  N      -65.537     191.314    -522.438
  C      -66.551     191.972    -522.961
  N      -66.186     192.672    -524.079
  O      -71.370     190.509    -525.515
  O      -71.113     189.238    -523.296
  H      -66.665     194.344    -527.294
  H      -70.744     189.826    -525.820
  H      -62.122     192.784    -525.933
  H      -67.554     191.980    -522.560
  H      -66.462     194.466    -525.062
  H      -66.729     192.102    -526.599
  H      -68.691     191.380    -525.347
  H      -69.665     194.288    -525.628
  H      -70.626     193.735    -523.325
  H      -61.570     190.393    -522.155
  H      -63.139     190.281    -521.391
  H      -71.446     193.001    -524.721
  P      -69.419     190.742    -527.846
  C      -68.276     191.692    -529.983
  O      -68.155     190.896    -528.814
  O      -70.677     190.741    -528.842
  O      -69.417     189.561    -526.935
  H      -70.941     189.831    -529.056
  H      -67.280     191.942    -530.341
  H      -68.822     192.621    -529.775
  H      -68.802     191.123    -530.755
  H      -74.210     191.614    -522.142
  H      -72.552     191.667    -521.592
  H      -73.317     190.129    -521.914

 3  4  5  6  7  8  9  10  11  12  22  25  29  30  31  32 0
 6-311+G(2d,p)
 ****
 33  36  37 0
 6-311+G(2d,p)
 ****
 1  2  13  14  15  16  17  18  19  20  21  23  24  26 0
 3-21G
 ****
 27  28  34  35  38  39  40  41  42  43  44  45  46  47  48 0
 3-21G
 ****


