%nproc=1
%NoSave
%Mem=1900MB
#P OB98/GEN NMR

erre ene a

0 1
  C       13.372    -396.249    -175.428
  O       14.324    -395.988    -174.414
  H       12.703    -395.390    -175.511
  H       12.782    -397.130    -175.164
  H       13.869    -396.407    -176.388
  P       15.465    -397.093    -174.190
  C       17.986    -397.283    -174.768
  O       16.828    -396.461    -174.765
  C       19.253    -396.430    -174.851
  O       19.283    -395.752    -176.142
  C       19.358    -395.350    -173.760
  O       20.741    -395.207    -173.409
  C       18.925    -394.086    -174.492
  O       19.394    -392.899    -173.860
  C       19.526    -394.354    -175.872
  N       19.133    -389.581    -177.421
  C       19.846    -390.129    -176.368
  N       20.563    -389.272    -175.608
  N       19.851    -391.404    -176.085
  C       19.115    -392.148    -176.947
  C       18.363    -391.728    -178.021
  C       18.344    -390.308    -178.305
  O       17.717    -389.760    -179.211
  N       17.736    -392.789    -178.629
  C       18.111    -393.844    -177.925
  N       18.947    -393.508    -176.895
  O       15.083    -398.215    -175.266
  O       15.554    -397.649    -172.808
  H       20.369    -392.961    -173.791
  H       14.525    -398.901    -174.854
  H       19.154    -388.588    -177.585
  H       17.804    -394.867    -178.116
  H       20.610    -394.184    -175.894
  H       17.829    -394.037    -174.545
  H       20.645    -388.286    -175.796
  H       18.766    -395.551    -172.862
  H       21.129    -389.662    -174.859
  H       20.123    -397.093    -174.826
  H       17.947    -397.951    -175.637
  H       18.002    -397.886    -173.856
  P       21.324    -396.148    -172.252
  C       23.178    -397.978    -172.225
  O       22.122    -397.357    -172.946
  O       20.010    -396.872    -171.685
  O       22.062    -395.417    -171.176
  H       20.143    -397.113    -170.749
  H       23.605    -398.758    -172.820
  H       22.794    -398.392    -171.316
  H       23.930    -397.251    -171.997

 6  7  8  9  10  11  12  13  14  15  26  29  33  34 0
 6-311+G(2d,p)
 ****
 36  38  39  40  41 0
 6-311+G(2d,p)
 ****
 1  2  3  4  5  16  17  18  19  20  21  22  23  24  25 0
 3-21G
 ****
 27  28  30  31  32  35  37  42  43  44  45  46  47 0
 3-21G
 ****
 48  49 0
 3-21G
 ****


