%nproc=1
%NoSave
%Mem=1900MB
#P OB98/GEN NMR

erre ene a

0 1
  C     -186.546    -397.000     640.758
  O     -186.478    -397.411     639.385
  P     -187.093    -396.555     638.176
  C     -184.727    -396.334     637.137
  O     -185.911    -395.661     637.546
  C     -183.529    -395.383     637.136
  O     -183.185    -395.010     638.491
  C     -182.242    -395.957     636.568
  O     -182.274    -396.073     635.161
  C     -181.210    -394.958     637.094
  O     -181.115    -393.813     636.239
  C     -181.809    -394.554     638.454
  N     -181.056    -395.064     639.586
  C     -180.003    -394.268     640.043
  O     -179.695    -393.236     639.455
  N     -179.311    -394.680     641.160
  C     -179.588    -395.828     641.705
  N     -178.875    -396.169     642.815
  C     -180.592    -396.755     641.163
  C     -181.286    -396.314     640.117
  O     -188.304    -395.763     638.541
  O     -187.418    -397.615     637.025
  H     -188.138    -397.275     636.458
  H     -180.554    -393.157     636.695
  H     -180.754    -397.723     641.617
  H     -182.061    -396.927     639.661
  H     -181.871    -393.457     638.525
  H     -180.212    -395.399     637.163
  H     -182.057    -396.943     637.019
  H     -183.818    -394.473     636.584
  H     -178.194    -395.513     643.161
  H     -184.880    -396.712     636.119
  H     -179.021    -397.035     643.321
  H     -184.554    -397.191     637.799
  P     -182.436    -397.551     634.554
  C     -184.743    -396.978     633.500
  O     -184.005    -397.832     634.362
  O     -182.031    -398.507     635.773
  O     -181.598    -397.828     633.348
  H     -181.517    -399.270     635.437
  H     -185.586    -397.544     633.098
  H     -184.133    -396.621     632.667
  H     -185.120    -396.127     634.067
  H     -186.068    -397.733     641.374
  H     -187.571    -396.902     641.050
  H     -186.050    -396.059     640.874

 3  4  5  6  7  8  9  10  11  12  13  24  27  28  29  30  32 0
 6-311+G(2d,p)
 ****
 34  35 0
 6-311+G(2d,p)
 ****
 1  2  14  15  16  17  18  19  20  21  22  23  25  26 0
 3-21G
 ****
 31  33  36  37  38  39  40  41  42  43  44  45  46 0
 3-21G
 ****


