%nproc=1
%NoSave
%Mem=1900MB
#P OB98/GEN NMR

erre ene a

0 1
  C      424.631    -247.073    -138.224
  O      424.039    -247.125    -136.941
  H      424.802    -248.093    -138.577
  H      425.594    -246.552    -138.178
  H      423.965    -246.561    -138.924
  P      423.807    -245.717    -136.204
  C      426.171    -246.017    -135.141
  O      425.301    -245.199    -135.909
  C      427.122    -245.139    -134.332
  O      428.128    -244.551    -135.188
  C      426.441    -243.962    -133.639
  O      425.765    -244.340    -132.446
  C      427.649    -243.083    -133.350
  O      428.379    -243.621    -132.233
  C      428.448    -243.236    -134.659
  N      428.137    -242.198    -135.648
  C      428.765    -240.962    -135.477
  O      429.529    -240.769    -134.533
  N      428.489    -239.948    -136.370
  C      427.662    -240.153    -137.349
  N      427.415    -239.114    -138.186
  C      426.993    -241.445    -137.574
  C      427.268    -242.414    -136.700
  O      423.286    -246.134    -134.748
  O      422.930    -244.739    -136.917
  H      427.750    -243.692    -131.492
  H      423.233    -245.333    -134.171
  H      426.304    -241.568    -138.401
  H      426.814    -243.389    -136.800
  H      429.527    -243.218    -134.469
  H      427.376    -242.057    -133.095
  H      425.771    -243.426    -134.316
  H      427.644    -245.781    -133.609
  H      427.838    -238.220    -137.973
  H      426.738    -246.653    -135.831
  H      426.655    -239.126    -138.862
  H      425.592    -246.650    -134.460
  P      424.262    -243.809    -132.248
  C      424.712    -242.038    -130.402
  O      424.361    -242.282    -131.757
  O      423.779    -244.585    -130.934
  O      423.348    -244.047    -133.411
  H      422.845    -244.859    -131.010
  H      424.738    -240.983    -130.225
  H      425.676    -242.457    -130.202
  H      423.986    -242.490    -129.759

 6  7  8  9  10  11  12  13  14  15  16  26  30  31  32  33  35 0
 6-311+G(2d,p)
 ****
 37  38 0
 6-311+G(2d,p)
 ****
 1  2  3  4  5  17  18  19  20  21  22  23  24  25 0
 3-21G
 ****
 27  28  29  34  36  39  40  41  42  43  44  45  46 0
 3-21G
 ****


