%nproc=1
%NoSave
%Mem=1900MB
#P OB98/GEN NMR

erre ene a

0 1
  C      -66.895      60.890     -43.329
  O      -67.363      60.081     -44.388
  H      -67.144      61.931     -43.551
  H      -65.809      60.805     -43.236
  H      -67.373      60.610     -42.388
  P      -67.117      58.498     -44.307
  C      -64.998      58.927     -45.735
  O      -65.537      58.332     -44.565
  C      -63.480      58.777     -45.751
  O      -62.875      59.442     -44.622
  C      -62.976      57.340     -45.662
  O      -63.149      56.597     -46.856
  C      -61.513      57.595     -45.346
  O      -60.827      58.016     -46.539
  C      -61.628      58.750     -44.326
  N      -61.617      58.282     -42.941
  C      -60.630      58.819     -42.106
  O      -59.816      59.635     -42.538
  N      -60.561      58.394     -40.802
  C      -61.391      57.493     -40.373
  N      -61.275      57.102     -39.074
  C      -62.434      56.886     -41.223
  C      -62.491      57.323     -42.479
  O      -68.000      57.652     -45.167
  O      -67.225      58.154     -42.747
  H      -60.689      57.219     -47.083
  H      -67.091      57.181     -42.643
  H      -63.082      56.118     -40.828
  H      -63.226      56.920     -43.167
  H      -60.816      59.475     -44.462
  H      -60.993      56.713     -44.970
  H      -63.429      56.819     -44.809
  H      -63.109      59.277     -46.655
  H      -60.551      57.536     -38.516
  H      -65.288      59.982     -45.748
  H      -61.828      56.354     -38.679
  H      -65.403      58.436     -46.625
  P      -63.929      55.196     -46.735
  C      -61.731      53.809     -46.475
  O      -62.967      54.216     -45.910
  O      -63.882      54.626     -48.227
  O      -65.322      55.288     -46.197
  H      -64.721      54.806     -48.693
  H      -61.223      53.161     -45.792
  H      -61.126      54.670     -46.667
  H      -61.912      53.288     -47.392

 6  7  8  9  10  11  12  13  14  15  16  26  30  31  32  33  35 0
 6-311+G(2d,p)
 ****
 37  38 0
 6-311+G(2d,p)
 ****
 1  2  3  4  5  17  18  19  20  21  22  23  24  25 0
 3-21G
 ****
 27  28  29  34  36  39  40  41  42  43  44  45  46 0
 3-21G
 ****


