%nproc=1
%NoSave
%Mem=1900MB
#P OB98/GEN NMR

erre ene a

0 1
  C     -282.181    -178.910    -325.316
  O     -281.729    -177.624    -324.938
  H     -283.276    -178.905    -325.315
  H     -281.834    -179.666    -324.611
  H     -281.837    -179.147    -326.325
  P     -280.151    -177.397    -324.751
  C     -280.349    -177.794    -322.194
  O     -279.786    -178.235    -323.426
  C     -279.411    -178.138    -321.036
  O     -279.349    -179.564    -320.823
  C     -277.955    -177.708    -321.238
  O     -277.750    -176.313    -321.096
  C     -277.296    -178.511    -320.128
  O     -277.548    -177.885    -318.860
  C     -278.048    -179.859    -320.234
  N     -277.340    -180.847    -321.047
  C     -276.314    -181.562    -320.407
  O     -276.044    -181.347    -319.227
  N     -275.593    -182.480    -321.138
  C     -275.853    -182.654    -322.394
  N     -275.074    -183.535    -323.083
  C     -276.932    -181.934    -323.110
  C     -277.629    -181.060    -322.382
  O     -279.679    -175.979    -324.761
  O     -279.480    -178.300    -325.893
  H     -277.319    -176.941    -318.958
  H     -278.501    -178.185    -325.825
  H     -277.104    -182.118    -324.158
  H     -278.424    -180.481    -322.833
  H     -278.236    -180.284    -319.243
  H     -276.208    -178.590    -320.241
  H     -277.577    -178.067    -322.202
  H     -279.838    -177.694    -320.121
  H     -274.318    -183.976    -322.575
  H     -281.319    -178.280    -322.069
  H     -275.032    -183.525    -324.097
  H     -280.493    -176.709    -322.213
  P     -276.945    -175.550    -322.258
  C     -274.843    -175.122    -320.782
  O     -275.385    -175.743    -321.934
  O     -277.218    -174.004    -321.926
  O     -277.332    -175.916    -323.663
  H     -277.983    -173.669    -322.431
  H     -273.800    -175.348    -320.712
  H     -275.346    -175.486    -319.911
  H     -274.974    -174.062    -320.853

 6  7  8  9  10  11  12  13  14  15  16  26  30  31  32  33  35 0
 6-311+G(2d,p)
 ****
 37  38 0
 6-311+G(2d,p)
 ****
 1  2  3  4  5  17  18  19  20  21  22  23  24  25 0
 3-21G
 ****
 27  28  29  34  36  39  40  41  42  43  44  45  46 0
 3-21G
 ****


