%nproc=1
%NoSave
%Mem=1900MB
#P OB98/GEN NMR

erre ene a

0 1
  C       63.190     455.132      84.559
  O       62.277     456.019      83.939
  P       62.826     457.027      82.821
  C       62.800     459.145      84.376
  O       62.300     458.488      83.223
  C       62.069     460.478      84.585
  O       62.341     461.344      83.446
  C       60.547     460.355      84.717
  O       60.119     461.360      85.648
  C       60.058     460.690      83.316
  O       58.703     461.118      83.298
  C       61.071     461.765      82.909
  N       61.161     461.962      81.465
  C       61.086     463.263      80.976
  O       60.925     464.253      81.688
  N       61.174     463.392      79.613
  C       61.255     462.372      78.709
  O       61.312     462.544      77.498
  C       61.284     461.016      79.284
  C       61.245     460.876      80.606
  O       61.921     456.620      81.566
  O       64.297     456.930      82.593
  H       61.013     456.372      81.815
  H       58.217     460.604      83.967
  H       61.159     464.328      79.240
  H       61.332     460.180      78.597
  H       61.257     459.890      81.052
  H       60.819     462.720      83.394
  H       60.144     459.800      82.684
  H       60.232     459.367      85.065
  H       62.497     460.963      85.471
  H       63.868     459.341      84.246
  H       62.676     458.492      85.247
  P       59.385     460.874      87.000
  C       57.143     461.942      86.165
  O       58.097     461.806      87.201
  O       60.406     461.442      88.096
  O       59.176     459.398      87.107
  H       60.650     462.368      87.944
  H       56.210     462.318      86.598
  H       56.939     460.989      85.676
  H       57.503     462.666      85.429
  H       62.672     454.530      85.276
  H       63.955     455.695      85.052
  H       63.633     454.501      83.818

 3  4  5  6  7  8  9  10  11  12  13  24  28  29  30  31  32 0
 6-311+G(2d,p)
 ****
 33  34 0
 6-311+G(2d,p)
 ****
 1  2  14  15  16  17  18  19  20  21  22  23  25  26  27 0
 3-21G
 ****
 35  36  37  38  39  40  41  42  43  44  45 0
 3-21G
 ****


