%nproc=1
%NoSave
%Mem=1900MB
#P OB98/GEN NMR

erre ene a

0 1
  C      473.736     217.136     504.463
  O      473.063     215.891     504.570
  P      473.747     214.616     503.868
  C      475.039     213.877     505.995
  O      475.122     214.377     504.667
  C      475.916     212.644     506.160
  O      475.448     211.595     505.294
  C      477.379     212.852     505.789
  O      478.105     213.471     506.841
  C      477.838     211.417     505.576
  O      478.141     210.813     506.844
  C      476.588     210.763     504.955
  N      478.540     208.132     501.097
  C      478.690     207.946     502.457
  N      479.445     206.897     502.845
  N      478.145     208.728     503.358
  C      477.387     209.709     502.825
  C      477.166     209.997     501.494
  C      477.812     209.156     500.511
  O      477.771     209.309     499.290
  N      476.321     211.068     501.348
  C      476.008     211.407     502.580
  N      476.650     210.631     503.513
  O      474.238     215.196     502.461
  O      472.862     213.430     503.710
  H      478.359     209.877     506.674
  H      474.301     214.472     501.807
  H      478.964     207.493     500.448
  H      475.322     212.205     502.841
  H      476.402     209.773     505.387
  H      478.739     211.342     504.960
  H      479.778     206.190     502.205
  H      477.473     213.412     504.853
  H      479.535     206.725     503.841
  H      475.828     212.295     507.196
  H      474.003     213.606     506.218
  H      475.349     214.667     506.690
  P      479.491     214.181     506.434
  C      478.025     216.189     505.676
  O      479.085     215.306     505.366
  O      480.232     213.064     505.558
  O      480.315     214.631     507.591
  H      481.201     213.196     505.596
  H      478.015     216.443     506.741
  H      477.074     215.725     505.406
  H      478.153     217.110     505.101
  H      473.173     217.891     504.972
  H      473.835     217.400     503.431
  H      474.707     217.056     504.906

 3  4  5  6  7  8  9  10  11  12  23  26  30  31  33  0
 6-311+G(2d,p)
 ****
 35  36  37  38 0
 6-311+G(2d,p)
 ****
 1  2  13  14  15  16  17  18  19  20  21  22  24  25  27  28  29 0
 3-21G
 ****
 32  34  39  40  41  42  43  44  45  46  47  48  49 0
 3-21G
 ****


