%nproc=1
%NoSave
%Mem=1900MB
#P OB98/GEN NMR

erre ene a

0 1
  C       38.282      32.766      -5.087
  O       37.155      32.182      -4.468
  H       37.977      33.711      -5.545
  H       38.678      32.112      -5.868
  H       39.057      32.974      -4.345
  P       37.314      30.722      -3.819
  C       35.534      29.906      -5.515
  O       35.922      29.989      -4.153
  C       34.552      28.753      -5.714
  O       35.133      27.500      -5.298
  C       33.260      28.867      -4.913
  O       32.358      29.831      -5.430
  C       32.737      27.446      -5.053
  O       32.180      27.266      -6.368
  C       34.041      26.629      -4.888
  N       34.250      26.158      -3.521
  C       33.631      24.951      -3.172
  O       32.950      24.337      -3.992
  N       33.766      24.484      -1.887
  C       34.442      25.172      -1.020
  N       34.505      24.689       0.252
  C       35.124      26.438      -1.349
  C       34.985      26.871      -2.600
  O       37.733      30.678      -2.385
  O       38.322      29.959      -4.800
  H       31.546      27.992      -6.511
  H       38.463      29.052      -4.434
  H       35.669      26.975      -0.587
  H       35.443      27.803      -2.913
  H       34.047      25.766      -5.564
  H       31.953      27.201      -4.332
  H       33.471      29.058      -3.856
  H       34.353      28.673      -6.791
  H       33.990      23.842       0.450
  H       36.435      29.762      -6.118
  H       34.764      25.287       1.030
  H       35.044      30.833      -5.824
  P       31.397      30.593      -4.391
  C       29.179      30.264      -5.719
  O       30.164      31.167      -5.243
  O       32.240      31.898      -4.020
  O       30.993      29.806      -3.185
  H       32.766      31.759      -3.208
  H       28.433      30.804      -6.263
  H       28.723      29.764      -4.890
  H       29.638      29.543      -6.362

 6  7  8  9  10  11  12  13  14  15  16  26  30  31  32  33  35 0
 6-311+G(2d,p)
 ****
 37  38 0
 6-311+G(2d,p)
 ****
 1  2  3  4  5  17  18  19  20  21  22  23  24  25 0
 3-21G
 ****
 27  28  29  34  36  39  40  41  42  43  44  45  46 0
 3-21G
 ****


