%nproc=1
%NoSave
%Mem=1900MB
#P OB98/GEN NMR

erre ene a

0 1
  C     1149.458    -430.852     869.521
  O     1150.439    -430.964     870.535
  H     1148.476    -430.719     870.001
  H     1149.423    -431.763     868.907
  H     1149.656    -429.982     868.886
  P     1151.943    -431.317     870.098
  C     1152.436    -430.948     872.613
  O     1152.700    -431.725     871.450
  C     1153.685    -430.863     873.487
  O     1154.777    -430.297     872.733
  C     1153.500    -429.979     874.707
  O     1152.746    -430.632     875.711
  C     1154.951    -429.692     875.074
  O     1155.547    -430.782     875.782
  C     1155.594    -429.539     873.668
  N     1155.724    -428.152     873.247
  C     1156.335    -427.284     874.155
  O     1156.738    -427.696     875.243
  N     1156.453    -425.951     873.820
  C     1156.010    -425.530     872.673
  N     1156.160    -424.205     872.394
  C     1155.362    -426.417     871.671
  C     1155.253    -427.700     872.025
  O     1152.670    -430.297     869.275
  O     1151.785    -432.717     869.326
  H     1155.013    -430.909     876.585
  H     1151.623    -432.568     868.378
  H     1155.023    -426.018     870.729
  H     1154.792    -428.417     871.348
  H     1156.601    -430.002     873.649
  H     1155.038    -428.801     875.692
  H     1153.025    -429.026     874.416
  H     1153.979    -431.887     873.784
  H     1156.593    -423.644     873.115
  H     1151.630    -431.453     873.163
  H     1155.928    -423.788     871.515
  H     1152.100    -429.946     872.341
  P     1151.332    -430.041     876.187
  C     1151.119    -432.385     877.248
  O     1150.870    -430.987     877.406
  O     1150.316    -429.857     875.083
  O     1151.735    -428.673     876.919
  H     1151.992    -427.975     876.279
  H     1150.772    -432.909     878.114
  H     1152.170    -432.549     877.129
  H     1150.601    -432.744     876.383

 6  7  8  9  10  11  12  13  14  15  16  26  30  31  32  33  35 0
 6-311+G(2d,p)
 ****
 37  38 0
 6-311+G(2d,p)
 ****
 1  2  3  4  5  17  18  19  20  21  22  23  24  25 0
 3-21G
 ****
 27  28  29  34  36  39  40  41  42  43  44  45  46 0
 3-21G
 ****


