%nproc=1
%NoSave
%Mem=1900MB
#P OB98/GEN NMR

erre ene a

0 1
  C      -37.398      22.433    -395.630
  O      -37.919      21.775    -394.490
  H      -36.612      21.813    -396.063
  H      -36.969      23.397    -395.342
  H      -38.186      22.580    -396.373
  P      -39.110      22.519    -393.716
  C      -40.691      22.118    -395.729
  O      -40.058      23.072    -394.888
  C      -42.200      22.358    -395.771
  O      -42.770      22.247    -394.454
  C      -42.597      23.742    -396.276
  O      -42.564      23.791    -397.693
  C      -44.017      23.843    -395.741
  O      -44.914      23.107    -396.600
  C      -43.911      23.144    -394.372
  N      -46.197      25.338    -390.336
  C      -46.695      24.634    -391.372
  N      -46.032      24.118    -392.432
  C      -44.720      24.390    -392.355
  C      -44.068      25.101    -391.354
  C      -44.864      25.576    -390.298
  N      -44.349      26.291    -389.236
  N      -42.718      25.179    -391.611
  C      -42.546      24.487    -392.725
  N      -43.733      24.019    -393.229
  O      -38.692      23.504    -392.681
  O      -39.948      21.267    -393.166
  H      -45.073      23.648    -397.391
  H      -39.967      20.552    -393.828
  H      -47.766      24.458    -391.353
  H      -41.591      24.280    -393.185
  H      -44.793      22.529    -394.163
  H      -44.376      24.873    -395.713
  H      -41.986      24.526    -395.821
  H      -42.649      21.570    -396.389
  H      -40.489      21.101    -395.369
  H      -45.008      26.739    -388.617
  H      -43.381      26.569    -389.275
  H      -40.264      22.220    -396.725
  P      -42.438      25.194    -398.459
  C      -39.964      25.802    -398.101
  O      -41.307      26.037    -397.689
  O      -43.721      25.924    -398.658
  O      -41.736      24.834    -399.850
  H      -42.116      25.371    -400.570
  H      -39.302      26.413    -397.524
  H      -39.861      26.045    -399.138
  H      -39.720      24.771    -397.951

 6  7  8  9  10  11  12  13  14  15  25  28  32  33  34  35 0
 6-311+G(2d,p)
 ****
 36  39  40 0
 6-311+G(2d,p)
 ****
 1  2  3  4  5  16  17  18  19  20  21  22  23  24 0
 3-21G
 ****
 26  27  29  30  31  37  38  41  42  43  44  45  46  47 0
 3-21G
 ****
 48 0
 3-21G
 ****


