%nproc=1
%NoSave
%Mem=1900MB
#P OB98/GEN NMR

erre ene a

0 1
  C      -20.418     -47.334      93.500
  O      -19.821     -48.473      94.098
  P      -18.279     -48.365      94.532
  C      -17.477     -50.066      92.742
  O      -17.401     -48.739      93.243
  C      -16.607     -50.229      91.495
  O      -17.174     -49.432      90.417
  C      -15.146     -49.785      91.674
  O      -14.347     -50.660      90.871
  C      -15.169     -48.379      91.099
  O      -13.888     -47.864      90.781
  C      -16.115     -48.583      89.919
  N      -14.942     -44.091      87.781
  C      -14.179     -45.155      88.114
  N      -14.563     -46.322      88.673
  C      -15.892     -46.335      88.877
  C      -16.793     -45.320      88.607
  C      -16.271     -44.151      88.031
  N      -17.052     -43.061      87.700
  N      -18.071     -45.685      88.978
  C      -17.943     -46.902      89.467
  N      -16.650     -47.343      89.407
  O      -18.084     -49.631      95.489
  O      -17.903     -47.085      95.212
  H      -13.341     -47.808      91.589
  H      -17.506     -49.417      96.246
  H      -13.118     -45.058      87.904
  H      -18.744     -47.496      89.885
  H      -15.628     -49.109      89.088
  H      -15.613     -47.700      91.837
  H      -14.801     -49.836      92.711
  H      -16.647     -51.279      91.180
  H      -18.513     -50.292      92.468
  H      -16.560     -42.207      87.481
  H      -17.991     -43.038      88.076
  H      -17.176     -50.769      93.526
  P      -12.797     -50.854      91.242
  C      -12.391     -49.376      89.179
  O      -12.072     -49.605      90.538
  O      -12.397     -52.053      90.258
  O      -12.497     -51.102      92.679
  H      -12.671     -51.872      89.341
  H      -11.909     -48.449      88.859
  H      -13.472     -49.277      89.053
  H      -12.014     -50.200      88.565
  H      -21.439     -47.549      93.265
  H      -19.890     -47.084      92.603
  H      -20.375     -46.510      94.181

 3  4  5  6  7  8  9  10  11  12  22  25  29  30  31  32 0
 6-311+G(2d,p)
 ****
 33  36  37 0
 6-311+G(2d,p)
 ****
 1  2  13  14  15  16  17  18  19  20  21  23  24  26 0
 3-21G
 ****
 27  28  34  35  38  39  40  41  42  43  44  45  46  47  48 0
 3-21G
 ****


