%nproc=1
%NoSave
%Mem=1900MB
#P OB98/GEN NMR

erre ene a

0 1
  C     -218.949      87.807     309.622
  O     -217.861      87.072     309.092
  P     -216.923      86.255     310.104
  C     -218.130      83.947     309.761
  O     -217.792      85.013     310.629
  C     -217.460      82.651     310.227
  O     -216.017      82.801     310.118
  C     -217.773      82.260     311.677
  O     -217.833      80.829     311.727
  C     -216.558      82.769     312.433
  O     -216.374      82.115     313.678
  C     -215.451      82.497     311.408
  N     -214.241      83.287     311.636
  C     -213.463      82.980     312.745
  O     -213.742      82.100     313.557
  N     -212.342      83.751     312.917
  C     -211.969      84.812     312.147
  O     -210.962      85.478     312.358
  C     -212.855      85.120     311.016
  C     -213.924      84.351     310.811
  O     -216.873      87.252     311.353
  O     -215.595      85.894     309.533
  H     -217.710      87.726     311.495
  H     -215.594      82.506     314.113
  H     -211.742      83.521     313.696
  H     -212.600      85.965     310.389
  H     -214.594      84.559     309.985
  H     -215.196      81.431     311.405
  H     -216.671      83.841     312.624
  H     -218.716      82.684     312.031
  H     -217.755      81.847     309.542
  H     -217.789      84.180     308.749
  H     -219.218      83.835     309.733
  P     -219.158      80.146     312.334
  C     -220.771      79.792     310.303
  O     -220.389      80.581     311.408
  O     -219.365      81.047     313.647
  O     -219.031      78.691     312.644
  H     -219.307      81.998     313.464
  H     -221.792      80.057     310.019
  H     -220.740      78.727     310.543
  H     -220.107      79.997     309.458
  H     -219.473      88.292     308.825
  H     -218.583      88.542     310.308
  H     -219.613      87.142     310.133

 3  4  5  6  7  8  9  10  11  12  13  24  28  29  30  31  32 0
 6-311+G(2d,p)
 ****
 33  34 0
 6-311+G(2d,p)
 ****
 1  2  14  15  16  17  18  19  20  21  22  23  25  26  27 0
 3-21G
 ****
 35  36  37  38  39  40  41  42  43  44  45 0
 3-21G
 ****


