%nproc=1
%NoSave
%Mem=1900MB
#P OB98/GEN NMR

erre ene a

0 1
  C       91.399    -368.184    -152.522
  O       90.725    -367.610    -151.423
  H       90.851    -367.936    -153.435
  H       91.423    -369.273    -152.412
  H       92.417    -367.799    -152.609
  P       91.488    -367.509    -150.017
  C       90.639    -369.791    -149.151
  O       91.768    -369.011    -149.521
  C       91.035    -370.906    -148.176
  O       89.844    -371.426    -147.531
  C       91.676    -372.073    -148.927
  O       92.606    -372.789    -148.121
  C       90.491    -372.972    -149.237
  O       90.863    -374.324    -149.493
  C       89.643    -372.780    -147.978
  N       85.918    -376.233    -148.356
  C       87.278    -376.429    -148.262
  N       87.709    -377.711    -148.293
  N       88.145    -375.454    -148.161
  C       87.579    -374.221    -148.219
  C       86.247    -373.904    -148.335
  C       85.294    -374.992    -148.406
  O       84.075    -374.879    -148.508
  N       86.058    -372.541    -148.380
  C       87.271    -372.041    -148.293
  N       88.231    -373.020    -148.180
  O       90.350    -367.016    -149.003
  O       92.679    -366.602    -149.990
  H       90.137    -374.740    -149.997
  H       90.749    -366.556    -148.242
  H       85.293    -377.023    -148.416
  H       87.512    -370.982    -148.303
  H       89.983    -373.456    -147.181
  H       89.998    -372.597    -150.144
  H       87.104    -378.477    -148.541
  H       92.179    -371.745    -149.842
  H       88.697    -377.857    -148.517
  H       91.678    -370.506    -147.384
  H       90.230    -370.225    -150.071
  H       89.865    -369.152    -148.715
  P       94.136    -372.819    -148.597
  C       93.965    -374.638    -150.477
  O       94.166    -373.281    -150.133
  O       94.756    -374.058    -147.799
  O       94.874    -371.547    -148.323
  H       95.321    -373.741    -147.067
  H       94.020    -374.748    -151.540
  H       93.001    -374.954    -150.135
  H       94.721    -375.239    -150.016

 6  7  8  9  10  11  12  13  14  15  26  29  33  34 0
 6-311+G(2d,p)
 ****
 36  38  39  40  41 0
 6-311+G(2d,p)
 ****
 1  2  3  4  5  16  17  18  19  20  21  22  23  24  25 0
 3-21G
 ****
 27  28  30  31  32  35  37  42  43  44  45  46  47 0
 3-21G
 ****
 48  49 0
 3-21G
 ****


