%nproc=1
%NoSave
%Mem=1900MB
#P OB98/GEN NMR

erre ene a

0 1
  C     -691.340    -449.741    -899.120
  O     -691.376    -450.550    -897.970
  H     -692.316    -449.261    -899.270
  H     -691.118    -450.348    -900.000
  H     -690.588    -448.951    -899.020
  P     -689.981    -451.083    -897.400
  C     -689.823    -449.538    -895.320
  O     -689.295    -449.861    -896.600
  C     -688.907    -448.544    -894.590
  O     -687.631    -449.205    -894.330
  C     -688.603    -447.279    -895.410
  O     -688.566    -446.157    -894.520
  C     -687.216    -447.536    -895.980
  O     -686.513    -446.321    -896.260
  C     -686.586    -448.372    -894.850
  N     -681.569    -448.861    -894.810
  C     -682.396    -447.977    -894.120
  N     -681.781    -447.086    -893.300
  N     -683.698    -447.973    -894.220
  C     -684.162    -448.932    -895.050
  C     -683.467    -449.844    -895.790
  C     -682.020    -449.833    -895.680
  O     -681.241    -450.553    -896.290
  N     -684.303    -450.631    -896.540
  C     -685.514    -450.193    -896.260
  N     -685.494    -449.160    -895.340
  O     -689.070    -451.212    -898.720
  O     -690.040    -452.377    -896.660
  H     -686.559    -445.761    -895.460
  H     -688.845    -452.144    -898.870
  H     -680.568    -448.795    -894.700
  H     -686.442    -450.583    -896.670
  H     -686.204    -447.738    -894.050
  H     -687.301    -448.120    -896.900
  H     -680.790    -447.068    -893.130
  H     -689.340    -447.092    -896.200
  H     -682.369    -446.465    -892.750
  H     -689.352    -448.310    -893.630
  H     -689.906    -450.458    -894.730
  H     -690.829    -449.098    -895.450
  P     -689.323    -444.827    -894.990
  C     -690.960    -444.489    -893.010
  O     -690.815    -444.835    -894.370
  O     -689.579    -445.082    -896.560
  O     -688.551    -443.571    -894.760
  H     -688.984    -444.501    -897.080
  H     -691.994    -444.537    -892.738
  H     -690.596    -443.495    -892.854
  H     -690.401    -445.173    -892.406

 6  7  8  9  10  11  12  13  14  15  26  29  33  34 0
 6-311+G(2d,p)
 ****
 36  38  39  40  41 0
 6-311+G(2d,p)
 ****
 1  2  3  4  5  16  17  18  19  20  21  22  23  24  25 0
 3-21G
 ****
 27  28  30  31  32  35  37  42  43  44  45  46  47 0
 3-21G
 ****
 48  49 0
 3-21G
 ****


