%nproc=1
%NoSave
%Mem=1900MB
#P OB98/GEN NMR

erre ene a

0 1
  C     -967.774    -827.889     182.137
  O     -968.979    -827.279     181.741
  H     -967.782    -828.023     183.222
  H     -966.913    -827.254     181.873
  H     -967.658    -828.868     181.661
  P     -969.212    -826.976     180.187
  C     -969.043    -824.423     180.558
  O     -969.856    -825.514     180.113
  C     -969.436    -823.150     179.816
  O     -969.026    -823.217     178.432
  C     -970.942    -822.870     179.802
  O     -971.358    -822.283     181.032
  C     -971.037    -821.922     178.619
  O     -970.586    -820.603     179.008
  C     -970.048    -822.557     177.636
  N     -973.430    -823.386     173.942
  C     -973.169    -822.231     174.681
  N     -973.938    -821.158     174.400
  N     -972.239    -822.147     175.587
  C     -971.594    -823.316     175.798
  C     -971.775    -824.521     175.151
  C     -972.767    -824.595     174.114
  O     -973.012    -825.572     173.421
  N     -970.959    -825.499     175.684
  C     -970.269    -824.872     176.613
  N     -970.623    -823.545     176.727
  O     -969.963    -828.014     179.409
  O     -967.735    -826.760     179.613
  H     -971.213    -820.301     179.708
  H     -967.357    -827.590     179.269
  H     -974.179    -823.397     173.262
  H     -969.498    -825.327     177.224
  H     -969.544    -821.811     177.009
  H     -972.063    -821.824     178.241
  H     -974.849    -821.253     173.939
  H     -971.514    -823.776     179.573
  H     -973.811    -820.322     174.955
  H     -968.897    -822.316     180.280
  H     -968.001    -824.689     180.342
  H     -969.148    -824.283     181.627
  P     -972.697    -822.759     181.786
  C     -973.289    -820.264     181.676
  O     -973.286    -821.455     182.453
  O     -972.504    -823.918     182.711
  O     -973.717    -823.042     180.604
  H     -973.668    -823.971     180.250
  H     -973.713    -819.466     182.249
  H     -973.871    -820.417     180.791
  H     -972.285    -820.013     181.403

 6  7  8  9  10  11  12  13  14  15  26  29  33  34 0
 6-311+G(2d,p)
 ****
 36  38  39  40  41 0
 6-311+G(2d,p)
 ****
 1  2  3  4  5  16  17  18  19  20  21  22  23  24  25 0
 3-21G
 ****
 27  28  30  31  32  35  37  42  43  44  45  46  47 0
 3-21G
 ****
 48  49 0
 3-21G
 ****


