%nproc=1
%NoSave
%Mem=1900MB
#P OB98/GEN NMR

erre ene a

0 1
  C      105.517     -39.293     124.335
  O      104.670     -38.171     124.165
  H      106.032     -39.200     125.294
  H      106.263     -39.329     123.534
  H      104.924     -40.212     124.338
  P      103.843     -38.094     122.792
  C      104.566     -37.926     120.312
  O      104.953     -37.797     121.673
  C      105.513     -37.141     119.407
  O      105.457     -35.739     119.726
  C      106.977     -37.549     119.526
  O      107.243     -38.685     118.718
  C      107.668     -36.306     118.984
  O      107.653     -36.335     117.543
  C      106.770     -35.167     119.493
  N      109.627     -31.386     121.474
  C      109.533     -31.875     120.216
  N      108.796     -32.917     119.772
  C      108.093     -33.465     120.778
  C      108.091     -33.077     122.110
  C      108.900     -31.979     122.450
  N      108.996     -31.484     123.732
  N      107.252     -33.877     122.856
  C      106.710     -34.697     121.978
  N      107.213     -34.514     120.713
  O      102.656     -37.191     122.801
  O      103.514     -39.644     122.548
  H      108.082     -37.169     117.272
  H      104.284     -40.196     122.773
  H      110.132     -31.364     119.467
  H      105.938     -35.425     122.200
  H      106.652     -34.374     118.743
  H      108.715     -36.240     119.289
  H      107.275     -37.698     120.570
  H      105.160     -37.254     118.373
  H      103.538     -37.565     120.173
  H      109.740     -30.826     123.919
  H      108.554     -32.009     124.474
  H      104.593     -38.991     120.057
  P      108.007     -39.966     119.316
  C      110.448     -40.493     119.924
  O      109.554     -39.546     119.350
  O      107.695     -41.247     118.628
  O      107.604     -39.978     120.862
  H      107.798     -40.852     121.254
  H      111.445     -40.107     119.892
  H      110.402     -41.408     119.371
  H      110.169     -40.676     120.941

 6  7  8  9  10  11  12  13  14  15  25  28  32  33  34  35 0
 6-311+G(2d,p)
 ****
 36  39  40 0
 6-311+G(2d,p)
 ****
 1  2  3  4  5  16  17  18  19  20  21  22  23  24 0
 3-21G
 ****
 26  27  29  30  31  37  38  41  42  43  44  45  46  47 0
 3-21G
 ****
 48 0
 3-21G
 ****


