%nproc=1
%NoSave
%Mem=1900MB
#P OB98/GEN NMR

erre ene a

0 1
  C      181.197     380.265     390.839
  O      182.209     380.882     390.068
  H      181.382     380.479     391.895
  H      181.212     379.182     390.695
  H      180.218     380.669     390.564
  P      182.189     380.605     388.486
  C      184.676     381.333     388.280
  O      183.700     380.321     388.038
  C      185.973     380.687     388.753
  O      185.779     380.098     390.064
  C      186.457     379.540     387.877
  O      187.111     379.994     386.700
  C      187.400     378.824     388.820
  O      188.710     379.415     388.825
  C      186.705     379.002     390.193
  N      186.046     377.774     390.629
  C      186.891     376.790     391.143
  O      188.117     376.917     391.227
  N      186.284     375.618     391.513
  C      184.956     375.327     391.383
  O      184.486     374.238     391.686
  C      184.116     376.400     390.824
  C      184.691     377.550     390.474
  O      181.870     382.045     387.869
  O      181.199     379.575     388.045
  H      180.950     382.071     387.549
  H      189.060     379.297     387.919
  H      186.879     374.902     391.889
  H      183.063     376.199     390.703
  H      184.099     378.352     390.044
  H      187.439     379.291     390.949
  H      187.523     377.775     388.539
  H      185.617     378.871     387.634
  H      186.748     381.461     388.831
  H      184.317     382.018     389.058
  H      184.832     381.897     387.359
  P      187.328     378.936     385.508
  C      188.893     380.788     384.474
  O      188.650     379.420     384.738
  O      186.123     379.340     384.537
  O      187.320     377.516     385.973
  H      185.872     380.275     384.638
  H      189.823     380.891     383.955
  H      188.938     381.327     385.397
  H      188.102     381.181     383.870

 6  7  8  9  10  11  12  13  14  15  16  27  31  32  33  34  35 0
 6-311+G(2d,p)
 ****
 36  37 0
 6-311+G(2d,p)
 ****
 1  2  3  4  5  17  18  19  20  21  22  23  24  25 0
 3-21G
 ****
 26  28  29  30  38  39  40  41  42  43  44  45 0
 3-21G
 ****


