%nproc=1
%NoSave
%Mem=1900MB
#P OB98/GEN NMR

erre ene a

0 1
  C     -123.907     -67.844      93.123
  O     -125.162     -68.391      93.480
  H     -123.261     -67.847      94.004
  H     -124.022     -66.813      92.778
  H     -123.436     -68.446      92.341
  P     -126.293     -68.490      92.351
  C     -127.501     -69.808      94.212
  O     -127.637     -68.920      93.112
  C     -128.803     -69.864      95.003
  O     -129.927     -70.001      94.113
  C     -128.882     -71.031      95.986
  O     -128.179     -70.723      97.178
  C     -130.386     -71.123      96.183
  O     -130.825     -70.072      97.064
  C     -130.900     -70.871      94.755
  N     -133.010     -72.839      90.588
  C     -133.132     -71.575      91.132
  N     -133.971     -70.730      90.495
  N     -132.505     -71.184      92.211
  C     -131.758     -72.158      92.777
  C     -131.572     -73.451      92.343
  C     -132.226     -73.855      91.117
  O     -132.130     -74.960      90.592
  N     -130.795     -74.168      93.216
  C     -130.481     -73.299      94.157
  N     -131.053     -72.068      93.945
  O     -125.972     -69.347      91.163
  O     -126.570     -66.970      91.941
  H     -131.799     -70.060      97.019
  H     -126.018     -66.703      91.183
  H     -133.533     -73.086      89.765
  H     -129.844     -73.508      95.007
  H     -131.864     -70.350      94.746
  H     -130.704     -72.069      96.619
  H     -134.676     -71.063      89.850
  H     -128.533     -71.966      95.535
  H     -134.112     -69.817      90.905
  H     -128.921     -68.905      95.524
  H     -126.687     -69.434      94.841
  H     -127.241     -70.812      93.861
  P     -127.010     -71.682      97.722
  C     -125.999     -69.619      98.904
  O     -126.459     -70.957      99.040
  O     -125.965     -72.026      96.716
  O     -127.775     -72.949      98.317
  H     -127.943     -73.659      97.650
  H     -125.662     -69.260      99.854
  H     -126.799     -69.001      98.552
  H     -125.191     -69.589      98.204

 6  7  8  9  10  11  12  13  14  15  26  29  33  34 0
 6-311+G(2d,p)
 ****
 36  38  39  40  41 0
 6-311+G(2d,p)
 ****
 1  2  3  4  5  16  17  18  19  20  21  22  23  24  25 0
 3-21G
 ****
 27  28  30  31  32  35  37  42  43  44  45  46  47 0
 3-21G
 ****
 48  49 0
 3-21G
 ****


