%nproc=1
%NoSave
%Mem=1900MB
#P OB98/GEN NMR

erre ene a

0 1
  C      470.717    -502.959    -773.712
  O      471.174    -504.190    -774.237
  H      469.679    -502.786    -773.996
  H      470.797    -502.987    -772.621
  H      471.341    -502.141    -774.091
  P      471.042    -504.385    -775.827
  C      472.904    -506.160    -775.479
  O      471.712    -505.803    -776.173
  C      473.608    -507.306    -776.204
  O      474.039    -506.866    -777.526
  C      474.876    -507.804    -775.518
  O      474.582    -508.683    -774.435
  C      475.541    -508.555    -776.677
  O      474.937    -509.856    -776.822
  C      475.190    -507.675    -777.881
  N      479.383    -507.168    -780.809
  C      478.530    -508.201    -780.628
  N      477.436    -508.270    -779.828
  C      477.259    -507.105    -779.172
  C      478.057    -505.975    -779.254
  C      479.163    -506.032    -780.112
  N      480.039    -504.971    -780.285
  N      477.549    -504.968    -778.449
  C      476.468    -505.487    -777.887
  N      476.258    -506.803    -778.298
  O      472.094    -503.324    -776.419
  O      469.680    -504.163    -776.383
  H      474.957    -510.261    -775.936
  H      471.738    -502.954    -777.251
  H      478.734    -509.098    -781.219
  H      475.824    -504.967    -777.191
  H      474.892    -508.287    -778.747
  H      476.617    -508.697    -776.516
  H      475.509    -506.975    -775.198
  H      472.885    -508.124    -776.335
  H      472.640    -506.490    -774.465
  H      480.691    -504.994    -781.042
  H      479.857    -504.120    -779.747
  H      473.548    -505.285    -775.418
  P      475.491    -508.580    -773.131
  C      473.733    -510.015    -771.882
  O      475.114    -509.839    -772.207
  O      474.864    -507.321    -772.323
  O      476.958    -508.379    -773.385
  H      475.549    -506.919    -771.757
  H      473.619    -510.883    -771.267
  H      473.168    -510.139    -772.782
  H      473.378    -509.154    -771.354

 6  7  8  9  10  11  12  13  14  15  25  28  32  33  34  35 0
 6-311+G(2d,p)
 ****
 36  39  40 0
 6-311+G(2d,p)
 ****
 1  2  3  4  5  16  17  18  19  20  21  22  23  24 0
 3-21G
 ****
 26  27  29  30  31  37  38  41  42  43  44  45  46  47  48 0
 3-21G
 ****


