%nproc=1
%NoSave
%Mem=1900MB
#P OB98/GEN NMR

erre ene a

0 1
  C      108.474      15.763     -51.975
  O      108.085      14.527     -52.534
  H      107.817      16.546     -52.363
  H      109.503      15.998     -52.262
  H      108.387      15.744     -50.885
  P      108.769      13.184     -51.991
  C      106.661      12.267     -50.816
  O      107.605      12.091     -51.862
  C      105.345      11.553     -51.145
  O      104.591      12.378     -52.085
  C      105.524      10.170     -51.802
  O      104.395       9.374     -51.416
  C      105.462      10.541     -53.273
  O      105.330       9.421     -54.109
  C      104.302      11.545     -53.228
  N      104.130      12.356     -54.427
  C      103.459      11.785     -55.503
  O      102.996      10.647     -55.514
  N      103.329      12.581     -56.612
  C      103.780      13.862     -56.739
  O      103.606      14.537     -57.746
  C      104.487      14.407     -55.571
  C      104.623      13.645     -54.484
  O      109.630      13.337     -50.782
  O      109.611      12.656     -53.248
  H      110.554      12.875     -53.126
  H      106.204       8.981     -54.195
  H      102.841      12.186     -57.400
  H      104.868      15.417     -55.643
  H      105.132      14.023     -53.604
  H      103.365      11.021     -53.013
  H      106.391      11.031     -53.573
  H      106.446       9.667     -51.499
  H      104.743      11.482     -50.232
  H      106.478      13.341     -50.698
  H      107.080      11.873     -49.884
  P      104.354       7.775     -51.549
  C      103.761       7.184     -49.099
  O      103.325       7.209     -50.454
  O      105.699       7.128     -51.499
  O      103.626       7.485     -52.945
  H      103.918       6.622     -53.293
  H      102.983       6.787     -48.481
  H      103.996       8.178     -48.781
  H      104.632       6.568     -49.016

 6  7  8  9  10  11  12  13  14  15  16  27  31  32  33  34  35 0
 6-311+G(2d,p)
 ****
 36  37 0
 6-311+G(2d,p)
 ****
 1  2  3  4  5  17  18  19  20  21  22  23  24  25 0
 3-21G
 ****
 26  28  29  30  38  39  40  41  42  43  44  45 0
 3-21G
 ****


