%nproc=1
%NoSave
%Mem=1900MB
#P OB98/GEN NMR

erre ene a

0 1
  C       97.121    -328.051    -399.527
  O       98.244    -328.639    -398.850
  P       99.397    -329.312    -399.737
  C      101.305    -328.681    -398.087
  O      100.616    -329.712    -398.778
  C      102.163    -329.268    -396.960
  O      101.349    -329.750    -395.869
  C      103.007    -330.455    -397.393
  O      104.211    -330.041    -398.033
  C      103.323    -331.097    -396.044
  O      104.403    -330.382    -395.409
  C      102.016    -330.879    -395.268
  N      101.566    -335.896    -394.299
  C      102.608    -335.049    -394.168
  N      102.653    -333.733    -394.471
  C      101.462    -333.306    -394.922
  C      100.310    -334.051    -395.100
  C      100.385    -335.416    -394.764
  N       99.323    -336.279    -394.887
  N       99.287    -333.265    -395.593
  C       99.815    -332.063    -395.704
  N      101.121    -332.035    -395.319
  O       99.977    -328.070    -400.571
  O       98.907    -330.397    -400.644
  H      104.078    -329.468    -395.255
  H      100.253    -328.369    -401.462
  H      103.526    -335.475    -393.786
  H       99.273    -331.184    -396.048
  H      102.195    -330.648    -394.216
  H      103.649    -332.136    -396.139
  H      102.418    -331.153    -398.007
  H      102.820    -328.467    -396.578
  H      100.596    -327.958    -397.672
  H       99.444    -337.236    -394.600
  H       98.441    -335.911    -395.217
  H      101.928    -328.123    -398.802
  P      104.350    -330.352    -399.596
  C      105.940    -328.299    -399.643
  O      105.690    -329.630    -400.075
  O      103.180    -329.480    -400.249
  O      104.220    -331.798    -399.944
  H      102.846    -329.910    -401.059
  H      107.001    -328.074    -399.787
  H      105.683    -328.166    -398.590
  H      105.337    -327.611    -400.258
  H       96.442    -327.646    -398.806
  H       96.622    -328.800    -400.106
  H       97.463    -327.270    -400.173

 3  4  5  6  7  8  9  10  11  12  22  25  29  30  31  32 0
 6-311+G(2d,p)
 ****
 33  36  37 0
 6-311+G(2d,p)
 ****
 1  2  13  14  15  16  17  18  19  20  21  23  24  26 0
 3-21G
 ****
 27  28  34  35  38  39  40  41  42  43  44  45  46  47  48 0
 3-21G
 ****


