%nproc=1
%NoSave
%Mem=1900MB
#P OB98/GEN NMR

erre ene a

0 1
  C      -46.367     332.258    -252.747
  O      -47.037     331.910    -251.545
  P      -46.211     331.090    -250.441
  C      -46.120     328.628    -249.648
  O      -46.711     329.565    -250.538
  C      -46.396     327.199    -250.102
  O      -47.801     326.899    -249.883
  C      -46.095     326.940    -251.588
  O      -45.422     325.681    -251.721
  C      -47.476     326.791    -252.209
  O      -47.446     326.002    -253.393
  C      -48.236     326.162    -251.043
  N      -52.218     324.205    -253.458
  C      -50.917     323.750    -253.392
  N      -50.624     322.650    -254.121
  N      -49.982     324.325    -252.681
  C      -50.424     325.396    -251.978
  C      -51.689     325.934    -251.954
  C      -52.699     325.326    -252.793
  O      -53.846     325.732    -252.963
  N      -51.756     327.012    -251.107
  C      -50.533     327.128    -250.622
  N      -49.677     326.199    -251.159
  O      -46.844     331.610    -249.063
  O      -44.736     331.289    -250.470
  H      -48.361     325.954    -253.727
  H      -46.137     331.965    -248.492
  H      -52.895     323.734    -254.033
  H      -50.216     327.883    -249.914
  H      -47.941     325.112    -250.914
  H      -47.865     327.786    -252.459
  H      -51.303     322.137    -254.661
  H      -45.506     327.727    -252.072
  H      -49.678     322.290    -254.068
  H      -45.820     326.514    -249.467
  H      -46.535     328.773    -248.646
  H      -45.040     328.810    -249.612
  P      -44.526     325.498    -253.043
  C      -44.969     324.359    -255.344
  O      -45.512     324.904    -254.157
  O      -43.575     324.264    -252.678
  O      -43.759     326.719    -253.427
  H      -42.755     324.297    -253.208
  H      -43.879     324.257    -255.292
  H      -45.223     325.009    -256.185
  H      -45.406     323.371    -255.514
  H      -47.036     332.798    -253.384
  H      -46.041     331.368    -253.244
  H      -45.520     332.870    -252.519

 3  4  5  6  7  8  9  10  11  12  23  26  30  31  33  0
 6-311+G(2d,p)
 ****
 35  36  37  38 0
 6-311+G(2d,p)
 ****
 1  2  13  14  15  16  17  18  19  20  21  22  24  25  27  28  29 0
 3-21G
 ****
 32  34  39  40  41  42  43  44  45  46  47  48  49 0
 3-21G
 ****


