%nproc=1
%NoSave
%Mem=1900MB
#P OB98/GEN NMR

erre ene a

0 1
  C       -8.187     -93.494     171.085
  O       -8.898     -92.499     170.378
  H       -7.677     -94.141     170.367
  H       -8.890     -94.100     171.663
  H       -7.444     -93.048     171.751
  P       -9.391     -91.219     171.208
  C       -7.249     -89.901     170.566
  O       -8.070     -90.397     171.612
  C       -6.813     -88.466     170.864
  O       -6.078     -88.457     172.126
  C       -5.903     -87.849     169.789
  O       -6.220     -86.458     169.657
  C       -4.523     -87.964     170.410
  O       -3.606     -87.020     169.872
  C       -4.856     -87.737     171.881
  N       -0.190     -86.619     173.351
  C       -1.101     -85.882     172.623
  N       -0.692     -84.684     172.157
  N       -2.317     -86.290     172.365
  C       -2.604     -87.499     172.906
  C       -1.792     -88.327     173.639
  C       -0.442     -87.873     173.904
  O        0.418     -88.490     174.523
  N       -2.438     -89.498     173.951
  C       -3.629     -89.382     173.388
  N       -3.776     -88.188     172.741
  O       -9.871     -91.864     172.593
  O      -10.470     -90.416     170.564
  H       -2.766     -87.091     170.369
  H      -10.832     -92.028     172.565
  H        0.739     -86.268     173.507
  H       -4.402     -90.136     173.403
  H       -5.028     -86.678     172.115
  H       -4.121     -88.971     170.247
  H        0.217     -84.289     172.341
  H       -5.974     -88.338     168.812
  H       -1.363     -84.114     171.656
  H       -7.709     -87.851     171.012
  H       -7.814     -89.914     169.628
  H       -6.374     -90.550     170.457
  P       -6.760     -85.938     168.240
  C       -9.061     -85.215     169.218
  O       -8.363     -85.989     168.253
  O       -6.364     -87.128     167.245
  O       -6.166     -84.640     167.805
  H       -6.134     -86.764     166.370
  H      -10.114     -85.357     169.095
  H       -8.823     -84.180     169.085
  H       -8.771     -85.524     170.201

 6  7  8  9  10  11  12  13  14  15  26  29  33  34 0
 6-311+G(2d,p)
 ****
 36  38  39  40  41 0
 6-311+G(2d,p)
 ****
 1  2  3  4  5  16  17  18  19  20  21  22  23  24  25 0
 3-21G
 ****
 27  28  30  31  32  35  37  42  43  44  45  46  47 0
 3-21G
 ****
 48  49 0
 3-21G
 ****


