%nproc=1
%NoSave
%Mem=1900MB
#P OB98/GEN NMR

erre ene a

0 1
  C      550.886    -409.163     940.030
  O      551.025    -409.130     941.451
  P      551.906    -407.941     942.104
  C      549.702    -406.844     942.865
  O      550.960    -406.649     942.237
  C      549.246    -405.550     943.574
  O      550.099    -405.238     944.688
  C      549.279    -404.333     942.688
  O      548.200    -404.340     941.760
  C      549.251    -403.205     943.717
  O      547.899    -402.960     944.157
  C      550.072    -403.809     944.876
  N      551.424    -403.256     944.964
  C      551.497    -401.910     945.341
  O      550.479    -401.259     945.546
  N      552.748    -401.341     945.480
  C      553.812    -402.043     945.242
  N      555.008    -401.427     945.380
  C      553.765    -403.458     944.817
  C      552.541    -403.990     944.704
  O      553.242    -407.709     941.483
  O      552.042    -408.419     943.635
  H      547.607    -403.778     944.602
  H      552.891    -408.074     943.982
  H      554.672    -404.017     944.644
  H      552.423    -405.026     944.398
  H      549.569    -403.627     945.836
  H      549.634    -402.271     943.308
  H      550.233    -404.292     942.136
  H      548.234    -405.718     943.948
  H      555.008    -400.457     945.661
  H      549.769    -407.657     943.577
  H      555.902    -401.908     945.276
  H      548.978    -407.140     942.106
  P      547.872    -402.972     940.975
  C      549.145    -403.794     938.867
  O      548.989    -402.779     939.856
  O      548.231    -401.844     942.072
  O      546.465    -402.846     940.511
  H      547.630    -401.092     941.957
  H      549.708    -403.361     938.019
  H      548.177    -404.145     938.507
  H      549.707    -404.630     939.280
  H      550.281    -410.000     939.750
  H      551.852    -409.255     939.579
  H      550.421    -408.259     939.696

 3  4  5  6  7  8  9  10  11  12  13  23  27  28  29  30  32 0
 6-311+G(2d,p)
 ****
 34  35 0
 6-311+G(2d,p)
 ****
 1  2  14  15  16  17  18  19  20  21  22  24  25  26 0
 3-21G
 ****
 31  33  36  37  38  39  40  41  42  43  44  45  46 0
 3-21G
 ****


