%nproc=1
%NoSave
%Mem=1900MB
#P OB98/GEN NMR

erre ene a

0 1
  C     1371.540     726.575     864.560
  O     1371.298     725.275     864.053
  H     1372.320     726.499     865.313
  H     1370.634     726.965     865.036
  H     1371.861     727.234     863.765
  P     1370.128     725.124     862.961
  C     1371.758     723.888     861.402
  O     1370.902     725.008     861.549
  C     1372.509     723.981     860.061
  O     1371.536     724.072     858.992
  C     1373.424     725.201     859.932
  O     1374.601     724.836     859.171
  C     1372.640     726.176     859.122
  O     1373.427     727.142     858.468
  C     1371.849     725.227     858.223
  N     1370.105     728.765     854.968
  C     1371.347     728.230     855.165
  N     1371.711     727.278     856.029
  C     1370.638     726.823     856.718
  C     1369.342     727.254     856.619
  C     1369.057     728.301     855.710
  N     1367.836     728.871     855.536
  N     1368.521     726.566     857.537
  C     1369.365     725.729     858.158
  N     1370.649     725.869     857.706
  O     1369.070     726.172     863.001
  O     1369.632     723.627     863.200
  H     1372.809     727.818     858.104
  H     1370.372     723.010     863.278
  H     1372.139     728.635     854.533
  H     1369.063     725.030     858.919
  H     1372.455     724.929     857.331
  H     1371.939     726.735     859.803
  H     1373.744     725.599     860.922
  H     1373.061     723.024     859.912
  H     1371.213     722.964     861.449
  H     1367.745     729.596     854.847
  H     1367.039     728.528     856.074
  H     1372.502     723.897     862.229
  P     1375.908     724.333     859.970
  C     1375.811     721.982     858.907
  O     1375.858     722.716     860.122
  O     1376.201     725.042     861.242
  O     1377.112     724.521     858.908
  H     1377.855     724.945     859.353
  H     1375.781     720.935     859.124
  H     1376.681     722.201     858.324
  H     1374.935     722.258     858.357

 6  7  8  9  10  11  12  13  14  15  25  28  32  33  34  35 0
 6-311+G(2d,p)
 ****
 36  39  40 0
 6-311+G(2d,p)
 ****
 1  2  3  4  5  16  17  18  19  20  21  22  23  24 0
 3-21G
 ****
 26  27  29  30  31  37  38  41  42  43  44  45  46  47 0
 3-21G
 ****
 48 0
 3-21G
 ****


