%nproc=1
%NoSave
%Mem=1900MB
#P OB98/GEN NMR

erre ene a

0 1
  C      681.158     412.753    -818.412
  O      680.051     412.192    -819.119
  P      680.193     410.672    -819.629
  C      681.157     411.236    -821.998
  O      680.104     410.692    -821.220
  C      680.620     411.794    -823.334
  O      680.360     410.674    -824.224
  C      679.305     412.550    -823.241
  O      679.146     413.342    -824.434
  C      678.298     411.422    -823.268
  O      676.993     411.886    -823.615
  C      678.933     410.433    -824.271
  N      678.653     409.013    -823.949
  C      677.701     408.335    -824.697
  O      677.056     408.852    -825.612
  N      677.456     407.038    -824.337
  C      678.088     406.343    -823.348
  O      677.769     405.206    -823.004
  C      679.195     407.048    -822.680
  C      679.410     408.327    -822.995
  O      678.816     409.993    -819.162
  O      681.382     409.958    -819.076
  H      676.371     411.133    -823.467
  H      678.981     409.412    -818.389
  H      676.707     406.553    -824.828
  H      679.760     406.510    -821.943
  H      680.213     408.874    -822.501
  H      678.576     410.602    -825.289
  H      678.226     410.963    -822.287
  H      679.195     413.183    -822.364
  H      681.394     412.411    -823.806
  H      681.928     410.490    -822.177
  H      681.634     412.059    -821.442
  P      679.942     414.740    -824.508
  C      678.037     416.316    -823.794
  O      678.850     415.862    -824.867
  O      681.184     414.750    -825.346
  O      680.263     415.046    -822.961
  H      680.989     415.701    -822.900
  H      677.743     417.346    -823.984
  H      678.552     416.261    -822.839
  H      677.133     415.693    -823.760
  H      680.930     413.761    -818.134
  H      682.024     412.744    -819.040
  H      681.349     412.175    -817.532

 3  4  5  6  7  8  9  10  11  12  13  23  28  29  30  31  32 0
 6-311+G(2d,p)
 ****
 33  34 0
 6-311+G(2d,p)
 ****
 1  2  14  15  16  17  18  19  20  21  22  24  25  26  27 0
 3-21G
 ****
 35  36  37  38  39  40  41  42  43  44  45 0
 3-21G
 ****


