%nproc=1
%NoSave
%Mem=1900MB
#P OB98/GEN NMR

erre ene a

0 1
  C     -590.745     103.626    -199.987
  O     -590.872     102.313    -199.470
  H     -590.819     103.579    -201.078
  H     -589.771     104.048    -199.716
  H     -591.550     104.258    -199.604
  P     -590.813     102.169    -197.872
  C     -593.375     102.520    -197.969
  O     -592.146     102.898    -197.361
  C     -594.533     102.703    -196.991
  O     -595.783     102.348    -197.611
  C     -594.433     101.849    -195.735
  O     -593.563     102.439    -194.788
  C     -595.881     101.874    -195.261
  O     -596.146     103.113    -194.574
  C     -596.667     101.832    -196.582
  N     -600.785      98.935    -197.592
  C     -600.665     100.164    -197.057
  N     -599.537     100.859    -196.776
  C     -598.451     100.146    -197.108
  C     -598.417      98.877    -197.666
  C     -599.655      98.268    -197.921
  N     -599.771      97.004    -198.475
  N     -597.115      98.463    -197.871
  C     -596.378      99.490    -197.490
  N     -597.136     100.521    -196.991
  O     -589.538     102.592    -197.230
  O     -591.181     100.621    -197.695
  H     -595.605     103.117    -193.760
  H     -591.867     100.355    -198.332
  H     -601.598     100.670    -196.821
  H     -595.300      99.545    -197.581
  H     -597.553     102.482    -196.548
  H     -596.101     101.065    -194.557
  H     -594.156     100.815    -195.973
  H     -594.589     103.771    -196.733
  H     -593.330     101.477    -198.305
  H     -600.685      96.577    -198.465
  H     -598.934      96.469    -198.605
  H     -593.519     103.162    -198.846
  P     -593.272     101.721    -193.379
  C     -591.332     100.278    -194.260
  O     -592.649     100.280    -193.721
  O     -594.432     101.689    -192.446
  O     -592.030     102.519    -192.769
  H     -592.135     102.613    -191.801
  H     -591.025      99.270    -194.447
  H     -590.660     100.732    -193.562
  H     -591.321     100.830    -195.177

 6  7  8  9  10  11  12  13  14  15  25  28  32  33  34  35 0
 6-311+G(2d,p)
 ****
 36  39  40 0
 6-311+G(2d,p)
 ****
 1  2  3  4  5  16  17  18  19  20  21  22  23  24 0
 3-21G
 ****
 26  27  29  30  31  37  38  41  42  43  44  45  46  47 0
 3-21G
 ****
 48 0
 3-21G
 ****


