%nproc=1
%NoSave
%Mem=1900MB
#P OB98/GEN NMR

erre ene a

0 1
  C      438.460      10.952    -309.082
  O      439.104      12.063    -309.667
  H      438.170      11.214    -308.062
  H      439.147      10.102    -309.044
  H      437.563      10.673    -309.642
  P      439.345      12.071    -311.249
  C      437.833      14.151    -311.506
  O      438.088      12.815    -311.915
  C      436.897      14.852    -312.494
  O      437.627      15.137    -313.716
  C      435.711      13.961    -312.881
  O      434.560      14.722    -313.238
  C      436.226      13.235    -314.111
  O      435.183      12.740    -314.951
  C      437.087      14.316    -314.764
  N      438.374      11.368    -318.721
  C      437.157      11.492    -318.089
  N      436.142      10.735    -318.575
  N      436.950      12.271    -317.058
  C      438.065      12.913    -316.633
  C      439.331      12.853    -317.162
  C      439.543      12.013    -318.329
  O      440.606      11.847    -318.911
  N      440.212      13.637    -316.454
  C      439.478      14.169    -315.497
  N      438.162      13.777    -315.577
  O      439.109      10.544    -311.676
  O      440.688      12.566    -311.697
  H      435.601      12.363    -315.748
  H      439.553      10.354    -312.522
  H      438.470      10.780    -319.533
  H      439.842      14.848    -314.737
  H      436.474      14.957    -315.413
  H      436.811      12.368    -313.781
  H      436.311       9.988    -319.232
  H      435.442      13.257    -312.096
  H      435.350      10.577    -317.948
  H      436.576      15.818    -312.086
  H      438.798      14.661    -311.459
  H      437.412      14.165    -310.499
  P      433.563      15.196    -312.080
  C      433.827      17.827    -312.237
  O      434.018      16.622    -311.522
  O      433.882      14.195    -310.872
  O      432.116      15.171    -312.459
  H      433.105      13.643    -310.672
  H      434.210      18.646    -311.665
  H      432.782      17.974    -312.415
  H      434.344      17.773    -313.172

 6  7  8  9  10  11  12  13  14  15  26  29  33  34 0
 6-311+G(2d,p)
 ****
 36  38  39  40  41 0
 6-311+G(2d,p)
 ****
 1  2  3  4  5  16  17  18  19  20  21  22  23  24  25 0
 3-21G
 ****
 27  28  30  31  32  35  37  42  43  44  45  46  47 0
 3-21G
 ****
 48  49 0
 3-21G
 ****


