%nproc=1
%NoSave
%Mem=1900MB
#P OB98/GEN NMR

erre ene a

0 1
  C     -893.510    -379.034    -470.040
  O     -894.870    -379.238    -469.681
  H     -893.400    -378.024    -470.437
  H     -893.210    -379.750    -470.809
  H     -892.870    -379.145    -469.157
  P     -895.250    -380.683    -469.108
  C     -896.710    -380.037    -467.086
  O     -895.420    -380.453    -467.527
  C     -896.600    -378.690    -466.362
  O     -895.990    -377.727    -467.263
  C     -897.960    -378.118    -465.933
  O     -897.830    -377.484    -464.666
  C     -898.260    -377.075    -467.006
  O     -899.140    -376.057    -466.529
  C     -896.850    -376.578    -467.365
  N     -898.820    -372.990    -470.397
  C     -898.940    -373.221    -469.083
  N     -898.380    -374.196    -468.339
  C     -897.560    -374.957    -469.112
  C     -897.330    -374.846    -470.459
  C     -898.020    -373.808    -471.122
  N     -897.910    -373.577    -472.482
  N     -896.470    -375.833    -470.893
  C     -896.180    -376.525    -469.807
  N     -896.820    -376.040    -468.708
  O     -894.340    -381.795    -469.492
  O     -896.760    -380.836    -469.603
  H     -899.960    -376.484    -466.225
  H     -897.270    -380.014    -469.456
  H     -899.600    -372.531    -468.536
  H     -895.500    -377.384    -469.777
  H     -896.500    -375.798    -466.681
  H     -898.740    -377.562    -467.869
  H     -898.750    -378.885    -465.888
  H     -895.930    -378.795    -465.491
  H     -897.140    -380.782    -466.406
  H     -898.420    -372.802    -472.877
  H     -897.300    -374.159    -473.035
  H     -897.350    -379.954    -467.956
  P     -898.490    -378.197    -463.389
  C     -896.660    -377.604    -461.651
  O     -897.320    -378.643    -462.388
  O     -899.520    -379.230    -463.678
  O     -899.140    -376.950    -462.605
  H     -900.000    -377.244    -462.205
  H     -895.906    -378.034    -461.025
  H     -897.375    -377.087    -461.045
  H     -896.207    -376.915    -462.333

 6  7  8  9  10  11  12  13  14  15  25  28  32  33  34  35 0
 6-311+G(2d,p)
 ****
 36  39  40 0
 6-311+G(2d,p)
 ****
 1  2  3  4  5  16  17  18  19  20  21  22  23  24 0
 3-21G
 ****
 26  27  29  30  31  37  38  41  42  43  44  45  46  47 0
 3-21G
 ****
 48 0
 3-21G
 ****


