%nproc=1
%NoSave
%Mem=1900MB
#P OB98/GEN NMR

erre ene a

0 1
  C      219.313      21.409     -54.133
  O      218.146      21.327     -53.334
  P      216.698      21.306     -54.017
  C      215.235      22.947     -55.350
  O      216.315      22.807     -54.434
  C      214.671      24.367     -55.300
  O      213.897      24.570     -54.094
  C      215.732      25.455     -55.274
  O      216.362      25.616     -56.533
  C      214.912      26.653     -54.805
  O      214.182      27.230     -55.898
  C      213.945      25.990     -53.801
  N      214.323      26.236     -52.417
  C      214.430      27.577     -52.037
  O      214.286      28.476     -52.870
  N      214.704      27.866     -50.720
  C      214.971      26.904     -49.893
  N      215.177      27.246     -48.589
  C      215.028      25.484     -50.297
  C      214.673      25.223     -51.554
  O      215.642      20.581     -53.249
  O      216.949      20.602     -55.435
  H      216.292      19.888     -55.555
  H      213.510      27.821     -55.499
  H      215.323      24.727     -49.583
  H      214.664      24.204     -51.931
  H      212.922      26.359     -53.959
  H      215.537      27.443     -54.375
  H      216.488      25.214     -54.515
  H      214.004      24.498     -56.163
  H      215.111      28.229     -48.347
  H      214.452      22.232     -55.079
  H      215.068      26.582     -47.827
  H      215.586      22.709     -56.360
  P      217.903      26.056     -56.521
  C      219.220      28.134     -55.705
  O      217.961      27.585     -56.045
  O      218.276      26.129     -58.081
  O      218.813      25.126     -55.789
  H      219.193      25.828     -58.213
  H      219.151      29.223     -55.743
  H      220.001      27.802     -56.397
  H      219.485      27.834     -54.685
  H      220.178      21.411     -53.503
  H      219.289      22.311     -54.708
  H      219.354      20.567     -54.792

 3  4  5  6  7  8  9  10  11  12  13  24  27  28  29  30  32 0
 6-311+G(2d,p)
 ****
 34  35 0
 6-311+G(2d,p)
 ****
 1  2  14  15  16  17  18  19  20  21  22  23  25  26 0
 3-21G
 ****
 31  33  36  37  38  39  40  41  42  43  44  45  46 0
 3-21G
 ****


