%nproc=1
%NoSave
%Mem=1900MB
#P OB98/GEN NMR

erre ene a

0 1
  C      193.051     144.351    -279.316
  O      194.191     144.968    -279.879
  H      193.261     144.067    -278.280
  H      192.224     145.067    -279.321
  H      192.760     143.470    -279.893
  P      195.433     144.021    -280.245
  C      195.092     143.390    -282.742
  O      195.730     144.251    -281.810
  C      196.110     142.836    -283.737
  O      195.450     141.828    -284.557
  C      196.713     143.888    -284.681
  O      198.097     143.581    -284.876
  C      195.968     143.655    -285.982
  O      196.706     144.084    -287.122
  C      195.738     142.149    -285.931
  N      194.630     140.362    -290.560
  C      195.782     140.396    -289.859
  N      195.979     140.843    -288.602
  C      194.817     141.223    -288.044
  C      193.564     141.240    -288.631
  C      193.493     140.795    -289.964
  N      192.337     140.820    -290.710
  N      192.628     141.753    -287.753
  C      193.311     142.067    -286.670
  N      194.637     141.766    -286.798
  O      194.774     142.560    -280.202
  O      196.614     144.129    -279.345
  H      196.135     144.020    -287.910
  H      194.819     142.209    -279.294
  H      196.662     140.027    -290.379
  H      192.905     142.535    -285.783
  H      196.620     141.575    -286.242
  H      195.017     144.202    -285.962
  H      196.610     144.917    -284.316
  H      196.901     142.323    -283.175
  H      194.334     143.958    -283.292
  H      192.406     140.587    -291.687
  H      191.509     141.246    -290.315
  H      194.600     142.574    -282.203
  P      199.114     143.984    -283.703
  C      199.177     141.977    -282.048
  O      199.798     142.650    -283.137
  O      198.143     144.440    -282.515
  O      200.070     145.073    -284.077
  H      198.561     145.146    -281.990
  H      199.751     141.112    -281.789
  H      198.189     141.678    -282.330
  H      199.124     142.635    -281.206

 6  7  8  9  10  11  12  13  14  15  25  28  32  33  34  35 0
 6-311+G(2d,p)
 ****
 36  39  40 0
 6-311+G(2d,p)
 ****
 1  2  3  4  5  16  17  18  19  20  21  22  23  24 0
 3-21G
 ****
 26  27  29  30  31  37  38  41  42  43  44  45  46  47 0
 3-21G
 ****
 48 0
 3-21G
 ****


