%nproc=1
%NoSave
%Mem=1900MB
#P OB98/GEN NMR

erre ene a

0 1
  C      379.069      -5.526     192.479
  O      377.844      -6.198     192.812
  P      376.916      -5.522     193.929
  C      374.524      -6.038     194.837
  O      375.741      -6.548     194.308
  C      373.505      -7.166     195.016
  O      373.087      -7.689     193.738
  C      374.062      -8.362     195.775
  O      374.093      -8.100     197.163
  C      373.087      -9.469     195.372
  O      371.976      -9.549     196.283
  C      372.624      -9.036     193.962
  N      373.083      -9.939     192.919
  C      372.274     -11.050     192.674
  O      371.249     -11.237     193.333
  N      372.654     -11.939     191.696
  C      373.770     -11.744     191.047
  N      374.097     -12.658     190.095
  C      374.664     -10.590     191.298
  C      374.265      -9.742     192.239
  O      376.152      -4.367     193.127
  O      377.676      -4.978     195.100
  H      371.402     -10.251     195.937
  H      375.980      -3.608     193.711
  H      375.585     -10.480     190.740
  H      374.866      -8.874     192.489
  H      371.527      -9.003     193.921
  H      373.577     -10.457     195.393
  H      375.069      -8.608     195.410
  H      372.624      -6.768     195.539
  H      373.464     -13.434     189.948
  H      374.118      -5.267     194.176
  H      374.941     -12.606     189.531
  H      374.738      -5.544     195.803
  P      375.478      -8.295     197.934
  C      376.766      -6.763     199.549
  O      375.489      -7.170     199.079
  O      376.540      -7.709     196.881
  O      375.835      -9.685     198.368
  H      377.452      -7.863     197.198
  H      376.639      -5.856     200.164
  H      377.418      -6.534     198.712
  H      377.205      -7.550     200.166
  H      379.587      -6.082     191.725
  H      379.683      -5.451     193.352
  H      378.849      -4.545     192.112

 3  4  5  6  7  8  9  10  11  12  13  21  23  27  28  29  30  32 0
 6-311+G(2d,p)
 ****
 34  35 0
 6-311+G(2d,p)
 ****
 1  2  14  15  16  17  18  19  20  22  24  25  26 0
 3-21G
 ****
 31  33  36  37  38  39  40  41  42  43  44  45  46 0
 3-21G
 ****


