%nproc=1
%NoSave
%Mem=1900MB
#P OB98/GEN NMR

erre ene a

0 1
  C     -379.640    -575.552     446.761
  O     -378.612    -574.957     445.971
  P     -378.919    -574.362     444.513
  C     -377.206    -575.990     443.483
  O     -377.598    -574.641     443.667
  C     -376.313    -576.121     442.244
  O     -376.980    -575.515     441.113
  C     -374.972    -575.439     442.360
  O     -374.072    -576.197     443.157
  C     -374.583    -575.305     440.898
  O     -374.074    -576.540     440.385
  C     -375.944    -574.994     440.228
  N     -376.153    -573.582     439.966
  C     -375.187    -572.942     439.193
  O     -374.219    -573.573     438.740
  N     -375.341    -571.615     438.880
  C     -376.363    -570.959     439.356
  N     -376.510    -569.659     438.982
  C     -377.379    -571.574     440.230
  C     -377.215    -572.872     440.495
  O     -379.386    -572.949     444.501
  O     -379.963    -575.395     443.874
  H     -373.884    -576.403     439.437
  H     -380.903    -575.173     444.081
  H     -378.202    -570.989     440.607
  H     -377.929    -573.400     441.103
  H     -376.050    -575.554     439.299
  H     -373.833    -574.528     440.709
  H     -375.085    -574.436     442.811
  H     -376.195    -577.190     442.019
  H     -375.890    -569.337     438.245
  H     -378.117    -576.595     443.344
  H     -377.400    -569.186     439.053
  H     -376.682    -576.345     444.379
  P     -373.773    -575.683     444.647
  C     -371.290    -576.398     444.463
  O     -372.508    -576.538     445.164
  O     -375.016    -576.253     445.496
  O     -373.642    -574.198     444.772
  H     -375.671    -575.546     445.645
  H     -370.493    -576.834     445.065
  H     -371.056    -575.338     444.286
  H     -371.346    -576.928     443.498
  H     -379.228    -575.883     447.692
  H     -380.054    -576.388     446.237
  H     -380.409    -574.832     446.947

 3  4  5  6  7  8  9  10  11  12  13  23  27  28  29  30  32 0
 6-311+G(2d,p)
 ****
 34  35 0
 6-311+G(2d,p)
 ****
 1  2  14  15  16  17  18  19  20  21  22  24  25  26 0
 3-21G
 ****
 31  33  36  37  38  39  40  41  42  43  44  45  46 0
 3-21G
 ****


