%nproc=1
%NoSave
%Mem=1900MB
#P OB98/GEN NMR

erre ene a

0 1
  C     -156.210    -270.082    -137.552
  O     -155.547    -269.132    -136.726
  P     -154.317    -269.658    -135.834
  C     -155.831    -269.772    -133.729
  O     -154.985    -270.481    -134.630
  C     -156.720    -270.741    -132.956
  O     -157.551    -271.477    -133.877
  C     -155.968    -271.795    -132.157
  O     -155.502    -271.285    -130.916
  C     -157.055    -272.839    -131.951
  O     -157.891    -272.453    -130.843
  C     -157.844    -272.760    -133.268
  N     -159.674    -276.325    -136.367
  C     -160.340    -275.420    -135.568
  N     -161.692    -275.452    -135.617
  N     -159.744    -274.564    -134.783
  C     -158.391    -274.617    -134.864
  C     -157.613    -275.469    -135.615
  C     -158.290    -276.449    -136.444
  O     -157.751    -277.318    -137.121
  N     -156.281    -275.212    -135.445
  C     -156.246    -274.185    -134.619
  N     -157.508    -273.807    -134.214
  O     -153.793    -268.324    -135.122
  O     -153.236    -270.349    -136.593
  H     -158.291    -271.593    -131.070
  H     -152.850    -268.424    -134.885
  H     -160.184    -276.953    -136.963
  H     -155.346    -273.688    -134.293
  H     -158.926    -272.789    -133.089
  H     -156.657    -273.830    -131.719
  H     -162.206    -275.997    -136.298
  H     -155.152    -272.228    -132.746
  H     -162.199    -274.772    -135.068
  H     -157.378    -270.156    -132.306
  H     -156.463    -269.085    -134.295
  H     -155.208    -269.195    -133.041
  P     -154.231    -272.025    -130.267
  C     -155.741    -273.396    -128.655
  O     -154.795    -273.417    -129.708
  O     -153.944    -271.164    -128.950
  O     -153.042    -272.103    -131.164
  H     -153.002    -271.240    -128.696
  H     -156.427    -272.548    -128.752
  H     -155.215    -273.335    -127.698
  H     -156.323    -274.322    -128.686
  H     -157.002    -269.599    -138.086
  H     -156.615    -270.863    -136.943
  H     -155.512    -270.498    -138.248

 3  4  5  6  7  8  9  10  11  12  23  26  30  31  33  0
 6-311+G(2d,p)
 ****
 35  36  37  38 0
 6-311+G(2d,p)
 ****
 1  2  13  14  15  16  17  18  19  20  21  22  24  25  27  28  29 0
 3-21G
 ****
 32  34  39  40  41  42  43  44  45  46  47  48  49 0
 3-21G
 ****


