%nproc=1
%NoSave
%Mem=1900MB
#P OB98/GEN NMR

erre ene a

0 1
  C      341.719    -938.737    -174.852
  O      341.617    -940.081    -174.447
  H      340.720    -938.282    -174.816
  H      342.086    -938.668    -175.881
  H      342.376    -938.174    -174.179
  P      342.967    -940.930    -174.261
  C      343.432    -941.613    -176.702
  O      342.994    -942.047    -175.417
  C      343.754    -942.831    -177.562
  O      344.842    -943.581    -176.999
  C      342.600    -943.820    -177.693
  O      341.587    -943.341    -178.565
  C      343.327    -945.065    -178.166
  O      343.558    -945.013    -179.578
  C      344.660    -944.957    -177.399
  N      344.696    -945.849    -176.228
  C      345.537    -946.955    -176.330
  O      346.235    -947.201    -177.301
  N      345.499    -947.823    -175.264
  C      344.630    -947.774    -174.206
  O      344.462    -948.690    -173.426
  C      343.794    -946.545    -174.140
  C      343.871    -945.669    -175.138
  O      343.212    -941.448    -172.876
  O      344.117    -939.910    -174.718
  H      344.553    -939.540    -173.927
  H      344.395    -945.513    -179.726
  H      346.078    -948.650    -175.347
  H      343.152    -946.424    -173.276
  H      343.248    -944.782    -175.127
  H      345.503    -945.206    -178.054
  H      342.764    -945.972    -177.942
  H      342.166    -944.017    -176.703
  H      344.066    -942.473    -178.567
  H      344.344    -941.010    -176.575
  H      342.647    -940.989    -177.165
  P      340.181    -942.843    -177.992
  C      339.561    -945.049    -176.821
  O      339.216    -944.126    -177.836
  O      339.574    -941.685    -178.697
  O      340.501    -942.473    -176.458
  H      340.145    -941.583    -176.269
  H      338.854    -945.852    -176.813
  H      339.551    -944.556    -175.872
  H      340.540    -945.438    -177.010

 6  7  8  9  10  11  12  13  14  15  16  27  31  32  33  34  35 0
 6-311+G(2d,p)
 ****
 36  37 0
 6-311+G(2d,p)
 ****
 1  2  3  4  5  17  18  19  20  21  22  23  24  25 0
 3-21G
 ****
 26  28  29  30  38  39  40  41  42  43  44  45 0
 3-21G
 ****


