%nproc=1
%NoSave
%Mem=1900MB
#P OB98/GEN NMR

erre ene a

0 1
  C      139.752      97.041    -313.601
  O      140.730      97.125    -314.616
  H      139.587      98.042    -313.192
  H      140.096      96.386    -312.799
  H      138.809      96.669    -314.012
  P      141.114      95.761    -315.378
  C      143.120      94.948    -313.932
  O      141.738      94.810    -314.240
  C      143.635      93.694    -313.218
  O      142.813      93.440    -312.056
  C      143.604      92.441    -314.099
  O      144.812      91.702    -313.909
  C      142.408      91.659    -313.586
  O      142.534      90.258    -313.825
  C      142.364      92.072    -312.108
  N      141.022      91.931    -311.546
  C      140.867      91.014    -310.501
  O      141.835      90.357    -310.107
  N      139.620      90.817    -309.966
  C      138.601      91.440    -310.469
  N      137.387      91.189    -309.909
  C      138.707      92.382    -311.602
  C      139.932      92.585    -312.082
  O      142.382      96.186    -316.255
  O      140.007      95.142    -316.167
  H      142.787      90.133    -314.766
  H      142.594      95.503    -316.936
  H      137.825      92.864    -311.999
  H      140.106      93.256    -312.916
  H      143.059      91.464    -311.515
  H      141.502      92.003    -314.094
  H      143.493      92.667    -315.158
  H      144.648      93.895    -312.852
  H      137.350      90.528    -309.141
  H      143.256      95.820    -313.287
  H      136.522      91.594    -310.239
  H      143.682      95.094    -314.862
  P      145.860      91.742    -315.126
  C      145.373      89.446    -316.231
  O      145.245      90.859    -316.322
  O      147.089      90.867    -314.592
  O      146.269      93.124    -315.518
  H      147.799      91.445    -314.262
  H      144.922      88.991    -317.088
  H      144.883      89.100    -315.345
  H      146.410      89.184    -316.191

 6  7  8  9  10  11  12  13  14  15  16  26  30  31  32  33  35 0
 6-311+G(2d,p)
 ****
 37  38 0
 6-311+G(2d,p)
 ****
 1  2  3  4  5  17  18  19  20  21  22  23  24  25 0
 3-21G
 ****
 27  28  29  34  36  39  40  41  42  43  44  45  46 0
 3-21G
 ****


