%nproc=1
%NoSave
%Mem=1900MB
#P OB98/GEN NMR

erre ene a

0 1
  C      -68.391     363.426    -102.461
  O      -68.779     364.622    -103.114
  P      -69.710     364.482    -104.417
  C      -69.272     363.842    -106.896
  O      -68.802     363.805    -105.555
  C      -69.040     362.507    -107.603
  O      -69.947     361.519    -107.061
  C      -69.246     362.554    -109.120
  O      -68.274     361.700    -109.726
  C      -70.624     361.948    -109.310
  O      -70.784     361.399    -110.616
  C      -70.657     360.920    -108.165
  N      -72.021     360.552    -107.795
  C      -72.429     359.251    -108.104
  O      -71.684     358.505    -108.732
  N      -73.692     358.855    -107.742
  C      -74.509     359.711    -107.211
  N      -75.749     359.264    -106.863
  C      -74.158     361.127    -106.981
  C      -72.902     361.468    -107.273
  O      -69.854     365.998    -104.915
  O      -71.035     363.840    -104.171
  H      -71.606     360.863    -110.622
  H      -70.721     366.145    -105.334
  H      -74.886     361.810    -106.572
  H      -72.548     362.478    -107.117
  H      -70.117     360.009    -108.452
  H      -71.394     362.717    -109.161
  H      -69.152     363.569    -109.528
  H      -68.021     362.170    -107.372
  H      -75.970     358.297    -107.045
  H      -68.733     364.616    -107.444
  H      -76.449     359.863    -106.446
  H      -70.337     364.102    -106.901
  P      -67.936     361.931    -111.276
  C      -69.287     361.670    -113.446
  O      -69.209     361.358    -112.068
  O      -66.848     360.787    -111.536
  O      -67.424     363.270    -111.695
  H      -66.509     360.857    -112.452
  H      -70.117     361.106    -113.885
  H      -68.363     361.392    -113.953
  H      -69.476     362.741    -113.575
  H      -67.778     363.663    -101.616
  H      -67.839     362.812    -103.141
  H      -69.263     362.900    -102.133

 3  4  5  6  7  8  9  10  11  12  13  21  23  27  28  29  30  32 0
 6-311+G(2d,p)
 ****
 34  35 0
 6-311+G(2d,p)
 ****
 1  2  14  15  16  17  18  19  20  22  24  25  26 0
 3-21G
 ****
 31  33  36  37  38  39  40  41  42  43  44  45  46 0
 3-21G
 ****


