%nproc=1
%NoSave
%Mem=1900MB
#P OB98/GEN NMR

erre ene a

0 1
  C     -191.294      -3.250    1337.857
  O     -192.213      -3.927    1337.025
  P     -193.026      -3.128    1335.902
  C     -194.244      -1.578    1337.541
  O     -194.381      -2.600    1336.570
  C     -195.569      -0.833    1337.732
  O     -195.876      -0.065    1336.546
  C     -196.770      -1.749    1337.948
  O     -196.789      -2.248    1339.283
  C     -197.924      -0.809    1337.602
  O     -198.245       0.036    1338.727
  C     -197.327       0.017    1336.460
  N     -201.121       0.230    1333.062
  C     -201.042       0.648    1334.346
  N     -199.998       0.524    1335.204
  C     -198.975      -0.140    1334.616
  C     -198.929      -0.644    1333.327
  C     -200.064      -0.417    1332.519
  N     -200.143      -0.788    1331.194
  N     -197.732      -1.284    1333.103
  C     -197.060      -1.167    1334.237
  N     -197.757      -0.427    1335.155
  O     -193.178      -3.836    1334.598
  O     -192.176      -1.779    1335.713
  H     -199.098       0.450    1338.545
  H     -191.860      -1.721    1334.788
  H     -201.914       1.164    1334.737
  H     -196.086      -1.580    1334.431
  H     -197.582       1.082    1336.556
  H     -198.829      -1.346    1337.341
  H     -196.749      -2.570    1337.222
  H     -195.457      -0.130    1338.568
  H     -193.468      -0.878    1337.216
  H     -200.930      -0.457    1330.665
  H     -199.278      -0.992    1330.702
  H     -193.928      -2.022    1338.497
  P     -196.396      -3.779    1339.559
  C     -198.733      -4.643    1338.937
  O     -197.755      -4.532    1339.954
  O     -195.247      -3.997    1340.486
  O     -196.082      -4.359    1338.100
  H     -195.396      -5.050    1338.168
  H     -199.263      -3.693    1338.839
  H     -199.447      -5.414    1339.230
  H     -198.280      -4.919    1337.989
  H     -190.852      -3.945    1338.540
  H     -191.805      -2.487    1338.406
  H     -190.529      -2.805    1337.256

 3  4  5  6  7  8  9  10  11  12  22  25  29  30  31  32 0
 6-311+G(2d,p)
 ****
 33  36  37 0
 6-311+G(2d,p)
 ****
 1  2  13  14  15  16  17  18  19  20  21  23  24  26 0
 3-21G
 ****
 27  28  34  35  38  39  40  41  42  43  44  45  46  47  48 0
 3-21G
 ****


