%nproc=1
%NoSave
%Mem=1900MB
#P OB98/GEN NMR

erre ene a

0 1
  C       62.626     461.041    -127.451
  O       62.607     459.866    -128.243
  P       61.181     459.342    -128.769
  C       60.939     461.315    -130.422
  O       60.389     460.636    -129.302
  C       60.802     460.473    -131.689
  O       59.394     460.187    -131.920
  C       61.353     461.144    -132.959
  O       62.097     460.178    -133.719
  C       60.099     461.485    -133.745
  O       60.358     461.576    -135.141
  C       59.186     460.330    -133.337
  N       55.527     459.418    -136.705
  C       56.786     458.853    -136.587
  N       57.132     457.957    -137.540
  N       57.629     459.137    -135.631
  C       57.135     460.021    -134.734
  C       55.907     460.645    -134.731
  C       55.008     460.365    -135.835
  O       53.921     460.902    -136.040
  N       55.761     461.468    -133.639
  C       56.901     461.348    -132.981
  N       57.784     460.519    -133.631
  O       60.419     458.961    -127.407
  O       61.233     458.181    -129.702
  H       60.900     462.373    -135.284
  H       60.129     458.032    -127.445
  H       54.927     459.175    -137.474
  H       57.138     461.856    -132.063
  H       59.512     459.401    -133.827
  H       59.709     462.449    -133.400
  H       56.518     457.664    -138.291
  H       61.974     462.020    -132.766
  H       58.036     457.518    -137.467
  H       61.298     459.503    -131.516
  H       61.998     461.522    -130.239
  H       60.412     462.266    -130.554
  P       63.372     460.746    -134.517
  C       65.097     459.771    -132.815
  O       64.525     460.922    -133.422
  O       62.949     462.247    -134.872
  O       63.733     459.942    -135.722
  H       63.437     462.560    -135.658
  H       64.778     458.850    -133.316
  H       64.798     459.735    -131.768
  H       66.188     459.846    -132.879
  H       63.634     461.269    -127.175
  H       62.041     460.886    -126.569
  H       62.217     461.856    -128.011

 3  4  5  6  7  8  9  10  11  12  23  26  30  31  33  0
 6-311+G(2d,p)
 ****
 35  36  37  38 0
 6-311+G(2d,p)
 ****
 1  2  13  14  15  16  17  18  19  20  21  22  24  25  27  28  29 0
 3-21G
 ****
 32  34  39  40  41  42  43  44  45  46  47  48  49 0
 3-21G
 ****


