%nproc=1
%NoSave
%Mem=1900MB
#P OB98/GEN NMR

erre ene a

0 1
  C      273.903      24.313    -471.797
  O      272.805      23.596    -472.365
  P      273.116      22.123    -472.921
  C      274.210      22.873    -475.155
  O      274.386      22.210    -473.910
  C      274.609      21.982    -476.342
  O      275.929      21.407    -476.145
  C      273.639      20.818    -476.585
  O      273.594      20.579    -477.989
  C      274.342      19.644    -475.917
  O      273.866      18.401    -476.419
  C      275.806      19.970    -476.248
  N      276.757      19.288    -475.360
  C      276.782      17.890    -475.412
  O      275.978      17.287    -476.127
  N      277.680      17.206    -474.632
  C      278.458      17.870    -473.822
  N      279.329      17.136    -473.074
  C      278.427      19.336    -473.688
  C      277.565      19.975    -474.482
  O      271.887      21.828    -473.902
  O      273.219      21.084    -471.857
  H      274.201      17.682    -475.831
  H      271.503      20.952    -473.709
  H      279.074      19.843    -472.979
  H      277.468      21.056    -474.452
  H      276.047      19.688    -477.273
  H      274.176      19.669    -474.823
  H      272.629      21.005    -476.201
  H      274.657      22.610    -477.241
  H      279.324      16.133    -473.205
  H      274.814      23.788    -475.179
  H      279.972      17.540    -472.405
  H      273.165      23.202    -475.244
  P      272.336      21.132    -478.824
  C      271.681      18.677    -479.245
  O      271.253      19.943    -478.755
  O      272.868      21.001    -480.335
  O      271.838      22.511    -478.538
  H      272.199      21.370    -480.948
  H      270.901      17.942    -479.028
  H      272.607      18.365    -478.743
  H      271.833      18.725    -480.325
  H      273.568      25.274    -471.466
  H      274.668      24.437    -472.535
  H      274.295      23.765    -470.965

 3  4  5  6  7  8  9  10  11  12  13  21  23  27  28  29  30  32 0
 6-311+G(2d,p)
 ****
 34  35 0
 6-311+G(2d,p)
 ****
 1  2  14  15  16  17  18  19  20  22  24  25  26 0
 3-21G
 ****
 31  33  36  37  38  39  40  41  42  43  44  45  46 0
 3-21G
 ****


