%nproc=1
%NoSave
%Mem=1900MB
#P OB98/GEN NMR

erre ene a

0 1
  C     -242.454      99.775    -197.240
  O     -243.771      99.650    -197.740
  H     -242.488      99.725    -196.147
  H     -242.030     100.739    -197.530
  H     -241.819      98.962    -197.608
  P     -243.992      99.593    -199.328
  C     -242.891     101.919    -199.320
  O     -243.935     101.115    -199.852
  C     -243.230     103.402    -199.466
  O     -243.366     103.717    -200.876
  C     -244.537     103.807    -198.769
  O     -244.367     105.108    -198.202
  C     -245.539     103.872    -199.904
  O     -246.621     104.762    -199.629
  C     -244.663     104.316    -201.072
  N     -243.679     103.787    -206.003
  C     -242.841     104.125    -204.958
  N     -241.556     104.390    -205.269
  N     -243.232     104.202    -203.713
  C     -244.545     103.900    -203.540
  C     -245.472     103.552    -204.493
  C     -245.031     103.482    -205.870
  O     -245.732     103.192    -206.835
  N     -246.708     103.342    -203.926
  C     -246.522     103.571    -202.635
  N     -245.229     103.922    -202.355
  O     -245.196      98.831    -199.780
  O     -242.637      98.957    -199.888
  H     -247.121     104.873    -200.465
  H     -242.757      98.010    -200.085
  H     -243.324     103.750    -206.944
  H     -247.289     103.504    -201.875
  H     -244.539     105.412    -201.106
  H     -245.959     102.872    -200.089
  H     -241.176     104.336    -206.205
  H     -244.841     103.101    -197.989
  H     -240.916     104.622    -204.519
  H     -242.388     103.993    -199.089
  H     -241.969     101.699    -199.871
  H     -242.741     101.671    -198.263
  P     -243.602     105.244    -196.796
  C     -245.835     105.560    -195.542
  O     -244.540     106.091    -195.801
  O     -242.180     105.702    -196.878
  O     -243.699     103.761    -196.195
  H     -242.920     103.601    -195.631
  H     -246.359     106.209    -194.871
  H     -245.741     104.590    -195.100
  H     -246.379     105.482    -196.460

 6  7  8  9  10  11  12  13  14  15  26  29  33  34 0
 6-311+G(2d,p)
 ****
 36  38  39  40  41 0
 6-311+G(2d,p)
 ****
 1  2  3  4  5  16  17  18  19  20  21  22  23  24  25 0
 3-21G
 ****
 27  28  30  31  32  35  37  42  43  44  45  46  47 0
 3-21G
 ****
 48  49 0
 3-21G
 ****


