%nproc=1
%NoSave
%Mem=1900MB
#P OB98/GEN NMR

erre ene a

0 1
  C     1089.931    -910.556     -10.047
  O     1089.448    -910.251     -11.377
  P     1089.851    -908.818     -11.980
  C     1092.014    -909.421     -13.334
  O     1091.441    -908.829     -12.151
  C     1092.989    -908.442     -13.988
  O     1093.998    -908.084     -13.073
  C     1093.664    -909.002     -15.216
  O     1092.789    -908.980     -16.352
  C     1094.854    -908.048     -15.339
  O     1094.506    -906.883     -16.115
  C     1095.167    -907.687     -13.862
  N     1096.373    -908.306     -13.377
  C     1097.554    -907.517     -13.490
  O     1097.474    -906.407     -13.969
  N     1098.736    -908.051     -13.049
  C     1098.789    -909.267     -12.585
  N     1099.991    -909.727     -12.168
  C     1097.579    -910.127     -12.476
  C     1096.432    -909.599     -12.890
  O     1089.615    -907.826     -10.770
  O     1089.072    -908.436     -13.205
  H     1093.953    -907.207     -16.860
  H     1089.383    -906.916     -11.086
  H     1097.666    -911.120     -12.060
  H     1095.495    -910.162     -12.847
  H     1095.263    -906.611     -13.767
  H     1095.705    -908.539     -15.864
  H     1094.013    -910.022     -15.023
  H     1092.411    -907.517     -14.238
  H     1100.781    -909.123     -12.273
  H     1091.183    -909.664     -14.007
  H     1100.108    -910.643     -11.767
  H     1092.513    -910.347     -13.065
  P     1093.264    -909.768     -17.643
  C     1091.148    -911.222     -17.724
  O     1092.539    -911.212     -17.553
  O     1094.779    -910.155     -17.290
  O     1093.131    -909.060     -18.973
  H     1095.208    -910.538     -18.088
  H     1090.795    -912.279     -17.776
  H     1090.849    -910.721     -18.627
  H     1090.642    -910.755     -16.850
  H     1089.597    -911.532      -9.761
  H     1089.552    -909.833      -9.355
  H     1091.001    -910.529     -10.041

 3  4  5  6  7  8  9  10  11  12  13  21  23  27  28  29  30  32 0
 6-311+G(2d,p)
 ****
 34  35 0
 6-311+G(2d,p)
 ****
 1  2  14  15  16  17  18  19  20  22  24  25  26 0
 3-21G
 ****
 31  33  36  37  38  39  40  41  42  43  44  45  46 0
 3-21G
 ****


