%nproc=1
%NoSave
%Mem=1900MB
#P OB98/GEN NMR

erre ene a

0 1
  C     1513.795    1070.169     552.924
  O     1514.973    1070.086     552.113
  P     1515.109    1068.772     551.186
  C     1513.884    1069.922     549.172
  O     1513.898    1068.873     550.127
  C     1513.373    1069.393     547.830
  O     1514.242    1068.346     547.337
  C     1511.975    1068.788     547.895
  O     1510.987    1069.806     547.995
  C     1511.967    1067.984     546.586
  O     1511.672    1068.859     545.475
  C     1513.420    1067.495     546.495
  N     1513.553    1066.087     546.872
  C     1512.676    1065.193     546.274
  O     1511.806    1065.561     545.461
  N     1512.811    1063.899     546.615
  C     1513.717    1063.372     547.512
  O     1513.798    1062.193     547.762
  C     1514.598    1064.365     548.143
  C     1514.479    1065.657     547.805
  O     1514.667    1067.617     552.185
  O     1516.471    1068.601     550.597
  H     1513.976    1067.901     552.810
  H     1510.850    1069.328     545.710
  H     1512.195    1063.223     546.141
  H     1515.290    1064.019     548.894
  H     1515.100    1066.397     548.294
  H     1513.804    1067.612     545.493
  H     1511.214    1067.210     546.584
  H     1511.918    1068.105     548.738
  H     1513.407    1070.219     547.102
  H     1514.885    1070.339     549.049
  H     1513.243    1070.738     549.554
  P     1509.915    1069.659     549.171
  C     1509.780    1072.185     549.867
  O     1510.210    1070.876     550.179
  O     1510.473    1068.381     549.960
  O     1508.496    1069.563     548.705
  H     1511.450    1068.393     550.051
  H     1509.767    1072.781     550.788
  H     1508.774    1072.184     549.441
  H     1510.481    1072.664     549.164
  H     1513.815    1071.076     553.491
  H     1513.761    1069.333     553.591
  H     1512.928    1070.160     552.296

 3  4  5  6  7  8  9  10  11  12  13  24  28  29  30  31  32 0
 6-311+G(2d,p)
 ****
 33  34 0
 6-311+G(2d,p)
 ****
 1  2  14  15  16  17  18  19  20  21  22  23  25  26  27 0
 3-21G
 ****
 35  36  37  38  39  40  41  42  43  44  45 0
 3-21G
 ****


