%nproc=1
%NoSave
%Mem=1900MB
#P OB98/GEN NMR

erre ene a

0 1
  C       87.063    -110.683     -18.945
  O       87.634    -110.021     -20.079
  P       86.893    -110.171     -21.495
  C       86.476    -112.083     -23.214
  O       87.160    -111.656     -22.046
  C       87.191    -113.289     -23.841
  O       88.381    -112.886     -24.559
  C       87.648    -114.325     -22.818
  O       86.594    -115.211     -22.461
  C       88.701    -115.077     -23.621
  O       88.067    -116.025     -24.500
  C       89.363    -113.949     -24.429
  N       94.232    -112.749     -25.148
  C       93.296    -113.256     -26.034
  N       93.721    -113.462     -27.303
  N       92.059    -113.530     -25.711
  C       91.774    -113.258     -24.413
  C       92.611    -112.757     -23.438
  C       93.981    -112.469     -23.809
  O       94.859    -112.034     -23.063
  N       91.958    -112.620     -22.238
  C       90.723    -113.015     -22.488
  N       90.563    -113.429     -23.791
  O       87.791    -109.267     -22.468
  O       85.465    -109.726     -21.488
  H       87.798    -115.528     -25.298
  H       87.248    -108.925     -23.200
  H       95.172    -112.561     -25.450
  H       89.916    -113.018     -21.765
  H       89.646    -114.269     -25.439
  H       89.382    -115.648     -22.979
  H       94.642    -113.229     -27.634
  H       88.106    -113.844     -21.941
  H       93.038    -113.801     -27.975
  H       86.501    -113.763     -24.551
  H       86.418    -111.268     -23.943
  H       85.439    -112.323     -22.953
  P       85.894    -114.992     -21.031
  C       86.259    -116.010     -18.666
  O       86.519    -116.099     -20.060
  O       84.395    -115.506     -21.290
  O       85.916    -113.586     -20.528
  H       83.771    -115.006     -20.728
  H       86.622    -116.922     -18.185
  H       85.188    -115.910     -18.475
  H       86.793    -115.151     -18.240
  H       87.664    -110.492     -18.080
  H       87.027    -111.737     -19.128
  H       86.072    -110.315     -18.779

 3  4  5  6  7  8  9  10  11  12  23  26  30  31 0
 6-311+G(2d,p)
 ****
 33  35  36  37  38 0
 6-311+G(2d,p)
 ****
 1  2  13  14  15  16  17  18  19  20  21  22  24  25 0
 3-21G
 ****
 27  28  29  32  34  39  40  41  42  43  44  45  46  47  48  49 0
 3-21G
 ****


