%nproc=1
%NoSave
%Mem=1900MB
#P OB98/GEN NMR

erre ene a

0 1
  C        7.460     137.214    -311.382
  O        8.725     136.591    -311.312
  H        7.473     137.949    -312.193
  H        7.248     137.737    -310.444
  H        6.677     136.477    -311.585
  P        8.890     135.363    -310.291
  C        9.303     135.122    -307.739
  O        9.083     136.003    -308.830
  C        9.094     135.855    -306.411
  O       10.175     136.812    -306.230
  C        7.769     136.621    -306.332
  O        7.250     136.504    -305.005
  C        8.172     138.066    -306.592
  O        7.255     139.000    -306.028
  C        9.584     138.104    -305.992
  N       10.384     139.180    -306.573
  C       10.593     140.310    -305.773
  O       10.104     140.368    -304.640
  N       11.299     141.369    -306.295
  C       11.678     141.341    -307.529
  N       12.349     142.432    -307.997
  C       11.426     140.196    -308.434
  C       10.785     139.159    -307.890
  O       10.342     134.786    -310.634
  O        7.825     134.318    -310.373
  H        7.062     138.726    -305.103
  H       10.384     133.822    -310.488
  H       11.743     140.229    -309.467
  H       10.544     138.279    -308.475
  H        9.536     138.253    -304.903
  H        8.213     138.241    -307.672
  H        7.023     136.267    -307.048
  H        9.174     135.126    -305.596
  H       12.489     143.199    -307.352
  H       10.334     134.752    -307.780
  H       12.654     142.536    -308.953
  H        8.619     134.269    -307.814
  P        6.428     135.166    -304.669
  C        4.272     134.013    -305.549
  O        5.054     135.200    -305.501
  O        5.958     135.395    -303.153
  O        7.231     133.914    -304.816
  H        6.459     134.804    -302.557
  H        3.394     134.188    -306.135
  H        3.988     133.732    -304.556
  H        4.845     133.226    -305.992

 6  7  8  9  10  11  12  13  14  15  16  26  30  31  32  33  35 0
 6-311+G(2d,p)
 ****
 37  38 0
 6-311+G(2d,p)
 ****
 1  2  3  4  5  17  18  19  20  21  22  23  24  25 0
 3-21G
 ****
 27  28  29  34  36  39  40  41  42  43  44  45  46 0
 3-21G
 ****


