%nproc=1
%NoSave
%Mem=1900MB
#P OB98/GEN NMR

erre ene a

0 1
  C     -265.486     -39.815       2.730
  O     -265.843     -39.095       3.896
  P     -264.639     -38.565       4.823
  C     -264.395     -40.769       6.206
  O     -263.818     -39.863       5.276
  C     -263.361     -41.148       7.265
  O     -262.278     -41.886       6.668
  C     -262.726     -39.959       7.975
  O     -263.573     -39.486       9.005
  C     -261.420     -40.566       8.478
  O     -261.635     -41.310       9.694
  C     -261.036     -41.500       7.320
  N     -256.235     -41.298       5.752
  C     -256.777     -41.882       6.883
  N     -255.918     -42.545       7.685
  N     -258.046     -41.823       7.194
  C     -258.783     -41.116       6.306
  C     -258.359     -40.481       5.161
  C     -256.965     -40.597       4.802
  O     -256.454     -40.183       3.766
  N     -259.395     -39.845       4.528
  C     -260.446     -40.123       5.273
  N     -260.134     -40.910       6.352
  O     -265.387     -38.089       6.151
  O     -263.797     -37.487       4.215
  H     -262.179     -42.092       9.494
  H     -265.522     -37.122       6.145
  H     -255.256     -41.392       5.557
  H     -261.453     -39.797       5.061
  H     -260.560     -42.422       7.677
  H     -260.672     -39.803       8.705
  H     -254.926     -42.611       7.524
  H     -262.506     -39.160       7.255
  H     -256.298     -42.977       8.523
  H     -263.854     -41.809       7.992
  H     -264.719     -41.669       5.676
  H     -265.269     -40.298       6.668
  P     -263.393     -37.959       9.466
  C     -261.704     -38.023      11.438
  O     -261.913     -37.810      10.054
  O     -264.333     -37.854      10.759
  O     -263.779     -36.951       8.431
  H     -264.749     -36.971      10.789
  H     -260.692     -38.405      11.583
  H     -262.419     -38.744      11.846
  H     -261.808     -37.073      11.966
  H     -266.372     -40.108       2.207
  H     -264.929     -40.686       3.005
  H     -264.887     -39.194       2.097

 3  4  5  6  7  8  9  10  11  12  23  26  30  31 0
 6-311+G(2d,p)
 ****
 33  35  36  37  38 0
 6-311+G(2d,p)
 ****
 1  2  13  14  15  16  17  18  19  20  21  22  24  25 0
 3-21G
 ****
 27  28  29  32  34  39  40  41  42  43  44  45  46  47  48  49 0
 3-21G
 ****


