%nproc=1
%NoSave
%Mem=1900MB
#P OB98/GEN NMR

erre ene a

0 1
  C     -148.123     228.632     222.586
  O     -147.456     228.151     223.735
  P     -148.110     227.037     224.683
  C     -147.150     225.270     223.079
  O     -148.306     225.737     223.758
  C     -146.703     223.908     223.616
  O     -147.798     222.958     223.502
  C     -145.490     223.306     222.896
  O     -144.753     222.579     223.882
  C     -146.137     222.353     221.909
  O     -145.235     221.363     221.426
  C     -147.314     221.829     222.741
  N     -148.356     221.240     221.909
  C     -148.427     219.845     221.886
  O     -147.587     219.170     222.485
  N     -149.411     219.243     221.143
  C     -150.186     219.971     220.403
  N     -151.148     219.321     219.691
  C     -150.065     221.437     220.300
  C     -149.147     222.000     221.084
  O     -149.329     227.470     225.424
  O     -146.904     226.600     225.638
  H     -144.575     221.804     220.850
  H     -146.759     227.281     226.343
  H     -150.697     221.996     219.627
  H     -148.984     223.070     221.077
  H     -146.973     221.071     223.459
  H     -146.508     222.915     221.041
  H     -144.855     224.048     222.407
  H     -146.483     224.023     224.684
  H     -151.208     218.317     219.803
  H     -146.345     225.991     223.243
  H     -151.854     219.799     219.152
  H     -147.341     225.220     222.002
  P     -143.188     222.284     223.707
  C     -142.714     224.070     225.477
  O     -142.408     223.600     224.177
  O     -142.791     221.765     222.363
  O     -142.850     221.227     224.864
  H     -141.992     220.803     224.675
  H     -141.942     224.777     225.792
  H     -142.755     223.245     226.193
  H     -143.682     224.583     225.461
  H     -147.514     229.366     222.101
  H     -149.054     229.075     222.873
  H     -148.307     227.820     221.914

 3  4  5  6  7  8  9  10  11  12  13  23  27  28  29  30  32 0
 6-311+G(2d,p)
 ****
 34  35 0
 6-311+G(2d,p)
 ****
 1  2  14  15  16  17  18  19  20  21  22  24  25  26 0
 3-21G
 ****
 31  33  36  37  38  39  40  41  42  43  44  45  46 0
 3-21G
 ****


