%nproc=1
%NoSave
%Mem=1900MB
#P OB98/GEN NMR

erre ene a

0 1
  C        1.521     -82.179      61.767
  O        2.213     -82.127      60.537
  H        0.623     -82.790      61.639
  H        1.223     -81.174      62.078
  H        2.153     -82.634      62.534
  P        3.510     -81.180      60.485
  C        4.304     -82.323      58.279
  O        3.876     -81.131      58.920
  C        4.649     -82.036      56.822
  O        3.446     -81.904      56.030
  C        5.422     -80.740      56.597
  O        6.797     -80.841      56.921
  C        5.205     -80.562      55.105
  O        6.035     -81.489      54.382
  C        3.712     -80.934      54.980
  N        2.821     -79.778      55.110
  C        2.154     -79.365      53.950
  O        2.323     -79.955      52.885
  N        1.334     -78.265      54.016
  C        1.173     -77.644      55.143
  N        0.350     -76.561      55.145
  C        1.844     -78.051      56.390
  C        2.642     -79.112      56.304
  O        4.669     -82.105      61.087
  O        3.376     -79.848      61.141
  H        5.717     -81.488      53.461
  H        5.547     -81.667      60.965
  H        1.689     -77.494      57.303
  H        3.169     -79.472      57.180
  H        3.508     -81.425      54.021
  H        5.457     -79.565      54.746
  H        4.958     -79.899      57.124
  H        5.202     -82.900      56.433
  H       -0.048     -76.270      54.262
  H        3.490     -83.055      58.336
  H        0.279     -75.926      55.930
  H        5.184     -82.728      58.786
  P        7.679     -79.503      56.816
  C        9.257     -79.519      58.886
  O        9.089     -79.820      57.506
  O        6.971     -78.517      57.855
  O        7.758     -78.909      55.444
  H        7.017     -77.592      57.546
  H       10.246     -79.788      59.192
  H        8.543     -80.071      59.461
  H        9.108     -78.471      59.043

 6  7  8  9  10  11  12  13  14  15  16  26  30  31  32  33  35 0
 6-311+G(2d,p)
 ****
 37  38 0
 6-311+G(2d,p)
 ****
 1  2  3  4  5  17  18  19  20  21  22  23  24  25 0
 3-21G
 ****
 27  28  29  34  36  39  40  41  42  43  44  45  46 0
 3-21G
 ****


