%nproc=1
%NoSave
%Mem=1900MB
#P OB98/GEN NMR

erre ene a

0 1
  C       70.192    -201.101      30.085
  O       69.936    -202.489      30.035
  H       69.437    -200.585      29.485
  H       71.180    -200.875      29.678
  H       70.124    -200.740      31.116
  P       70.972    -203.484      30.746
  C       69.210    -204.495      32.346
  O       70.121    -204.731      31.281
  C       67.919    -205.298      32.148
  O       67.085    -204.612      31.169
  C       68.149    -206.728      31.629
  O       67.084    -207.545      32.133
  C       68.007    -206.530      30.130
  O       67.856    -207.755      29.460
  C       66.835    -205.547      30.093
  N       66.709    -204.876      28.809
  C       66.333    -205.677      27.723
  O       66.140    -206.881      27.884
  N       66.215    -205.098      26.485
  C       66.516    -203.847      26.328
  N       66.390    -203.339      25.072
  C       66.974    -202.977      27.436
  C       67.043    -203.551      28.637
  O       71.877    -202.863      31.756
  O       71.802    -204.109      29.527
  H       68.703    -208.254      29.448
  H       72.691    -203.707      29.492
  H       67.227    -201.946      27.246
  H       67.368    -202.994      29.511
  H       65.888    -206.057      30.309
  H       68.907    -206.057      29.721
  H       69.117    -207.138      31.928
  H       67.361    -205.305      33.091
  H       66.085    -203.972      24.344
  H       68.986    -203.424      32.354
  H       66.613    -202.385      24.827
  H       69.669    -204.767      33.302
  P       67.005    -209.124      31.879
  C       67.260    -209.903      34.328
  O       66.411    -209.842      33.187
  O       68.281    -209.730      31.383
  O       65.839    -209.313      30.792
  H       66.039    -210.096      30.246
  H       66.750    -210.402      35.126
  H       67.517    -208.911      34.635
  H       68.151    -210.442      34.081

 6  7  8  9  10  11  12  13  14  15  16  26  30  31  32  33  35 0
 6-311+G(2d,p)
 ****
 37  38 0
 6-311+G(2d,p)
 ****
 1  2  3  4  5  17  18  19  20  21  22  23  24  25 0
 3-21G
 ****
 27  28  29  34  36  39  40  41  42  43  44  45  46 0
 3-21G
 ****


