%nproc=1
%NoSave
%Mem=1900MB
#P OB98/GEN NMR

erre ene a

0 1
  C      371.099     540.595    -622.940
  O      372.225     540.038    -623.589
  H      370.283     540.669    -623.666
  H      371.332     541.593    -622.574
  H      370.776     539.948    -622.115
  P      373.545     539.724    -622.730
  C      373.042     537.204    -622.579
  O      373.944     538.197    -623.040
  C      373.125     535.944    -623.444
  O      372.487     536.209    -624.718
  C      374.564     535.498    -623.727
  O      374.607     534.065    -623.718
  C      374.834     536.011    -625.132
  O      375.817     535.238    -625.824
  C      373.443     535.918    -625.766
  N      373.636     536.345    -630.799
  C      373.771     535.218    -629.987
  N      374.006     534.042    -630.616
  N      373.672     535.259    -628.685
  C      373.416     536.498    -628.193
  C      373.264     537.677    -628.892
  C      373.394     537.637    -630.334
  O      373.314     538.589    -631.108
  N      373.052     538.731    -628.042
  C      373.056     538.182    -626.830
  N      373.290     536.844    -626.882
  O      373.445     540.053    -621.268
  O      374.694     540.560    -623.456
  H      375.485     534.309    -625.844
  H      374.869     541.396    -622.972
  H      373.723     536.257    -631.798
  H      372.911     538.729    -625.902
  H      373.220     534.910    -626.154
  H      375.168     537.049    -625.092
  H      374.077     533.950    -631.616
  H      375.294     535.897    -623.004
  H      374.082     533.215    -630.044
  H      372.563     535.148    -622.952
  H      372.020     537.614    -622.627
  H      373.267     536.956    -621.531
  P      376.031     533.344    -623.904
  C      375.864     531.973    -621.725
  O      375.969     531.932    -623.145
  O      377.235     534.174    -623.608
  O      375.993     532.891    -625.454
  H      376.901     532.890    -625.802
  H      375.831     530.975    -621.341
  H      374.970     532.491    -621.448
  H      376.712     532.484    -621.319

 6  7  8  9  10  11  12  13  14  15  26  29  33  34 0
 6-311+G(2d,p)
 ****
 36  38  39  40  41 0
 6-311+G(2d,p)
 ****
 1  2  3  4  5  16  17  18  19  20  21  22  23  24  25 0
 3-21G
 ****
 27  28  30  31  32  35  37  42  43  44  45  46  47 0
 3-21G
 ****
 48  49 0
 3-21G
 ****


