%nproc=1
%NoSave
%Mem=1900MB
#P OB98/GEN NMR

erre ene a

0 1
  C     -399.107    -942.086    -161.511
  O     -397.998    -941.682    -162.293
  H     -398.994    -941.674    -160.503
  H     -399.137    -943.177    -161.444
  H     -400.044    -941.712    -161.938
  P     -397.983    -942.035    -163.853
  C     -398.283    -939.517    -164.342
  O     -397.547    -940.696    -164.635
  C     -397.654    -938.324    -165.046
  O     -396.484    -937.868    -164.328
  C     -397.183    -938.615    -166.468
  O     -398.284    -938.676    -167.366
  C     -396.233    -937.446    -166.690
  O     -396.951    -936.248    -167.018
  C     -395.562    -937.314    -165.300
  N     -394.253    -937.991    -165.234
  C     -393.188    -937.276    -165.750
  O     -393.281    -936.148    -166.243
  N     -391.962    -937.914    -165.719
  C     -391.754    -939.202    -165.314
  O     -390.714    -939.817    -165.520
  C     -392.921    -939.880    -164.718
  C     -394.099    -939.252    -164.715
  O     -399.211    -942.695    -164.388
  O     -396.692    -942.976    -164.014
  H     -396.971    -943.905    -164.062
  H     -397.377    -935.939    -166.199
  H     -391.189    -937.424    -166.135
  H     -392.781    -940.891    -164.323
  H     -394.973    -939.751    -164.298
  H     -395.428    -936.258    -165.042
  H     -395.532    -937.633    -167.516
  H     -396.618    -939.554    -166.486
  H     -398.393    -937.493    -165.040
  H     -398.266    -939.353    -163.254
  H     -399.326    -939.660    -164.667
  P     -398.232    -939.586    -168.664
  C     -400.584    -940.612    -168.726
  O     -399.714    -939.646    -169.298
  O     -397.584    -940.921    -168.489
  O     -397.419    -938.701    -169.748
  H     -396.674    -939.234    -170.103
  H     -401.535    -940.570    -169.215
  H     -400.709    -940.406    -167.684
  H     -400.163    -941.588    -168.849

 6  7  8  9  10  11  12  13  14  15  16  27  31  32  33  34  35 0
 6-311+G(2d,p)
 ****
 36  37 0
 6-311+G(2d,p)
 ****
 1  2  3  4  5  17  18  19  20  21  22  23  24  25 0
 3-21G
 ****
 26  28  29  30  38  39  40  41  42  43  44  45 0
 3-21G
 ****


