%nproc=1
%NoSave
%Mem=1900MB
#P OB98/GEN NMR

erre ene a

0 1
  C     -210.920    -548.749    -375.008
  O     -209.735    -549.447    -375.409
  P     -209.462    -549.630    -376.978
  C     -209.163    -552.212    -377.051
  O     -208.555    -550.933    -377.179
  C     -208.112    -553.321    -377.187
  O     -207.528    -553.652    -375.898
  C     -208.667    -554.626    -377.746
  O     -208.732    -554.593    -379.166
  C     -207.595    -555.610    -377.304
  O     -206.463    -555.546    -378.193
  C     -207.220    -555.075    -375.915
  N     -207.494    -559.273    -373.098
  C     -206.613    -558.937    -374.107
  N     -205.666    -559.847    -374.406
  N     -206.664    -557.803    -374.761
  C     -207.649    -556.981    -374.345
  C     -208.586    -557.205    -373.359
  C     -208.533    -558.460    -372.645
  O     -209.295    -558.825    -371.757
  N     -209.440    -556.138    -373.230
  C     -209.003    -555.260    -374.119
  N     -207.935    -555.737    -374.836
  O     -208.435    -548.437    -377.301
  O     -210.686    -549.549    -377.832
  H     -205.844    -556.243    -377.915
  H     -208.529    -548.163    -378.233
  H     -207.417    -560.156    -372.628
  H     -209.443    -554.283    -374.275
  H     -206.142    -555.184    -375.701
  H     -207.950    -556.643    -377.316
  H     -205.535    -560.716    -373.909
  H     -209.623    -554.873    -377.285
  H     -204.990    -559.603    -375.122
  H     -207.311    -552.949    -377.846
  H     -209.942    -552.344    -377.806
  H     -209.683    -552.261    -376.086
  P     -210.175    -554.751    -379.853
  C     -209.889    -557.244    -380.495
  O     -210.035    -555.911    -380.933
  O     -210.307    -553.407    -380.716
  O     -211.311    -554.895    -378.884
  H     -211.245    -553.134    -380.771
  H     -209.971    -557.912    -381.358
  H     -210.675    -557.505    -379.775
  H     -208.906    -557.383    -380.037
  H     -210.965    -548.707    -373.940
  H     -211.781    -549.264    -375.381
  H     -210.900    -547.755    -375.404

 3  4  5  6  7  8  9  10  11  12  23  26  30  31 0
 6-311+G(2d,p)
 ****
 33  35  36  37  38 0
 6-311+G(2d,p)
 ****
 1  2  13  14  15  16  17  18  19  20  21  22  24  25 0
 3-21G
 ****
 27  28  29  32  34  39  40  41  42  43  44  45  46  47  48  49 0
 3-21G
 ****


