%nproc=1
%NoSave
%Mem=1900MB
#P OB98/GEN NMR

erre ene a

0 1
  C     -441.155     233.652    -591.533
  O     -440.999     233.517    -592.927
  P     -441.389     232.154    -593.666
  C     -439.356     230.715    -593.005
  O     -439.994     231.450    -594.045
  C     -438.131     229.966    -593.538
  O     -438.542     228.877    -594.397
  C     -437.192     230.825    -594.380
  O     -436.412     231.656    -593.551
  C     -436.415     229.756    -595.137
  O     -435.344     229.236    -594.339
  C     -437.498     228.680    -595.379
  N     -438.023     228.702    -596.733
  C     -437.339     227.918    -597.671
  O     -436.347     227.280    -597.335
  N     -437.777     227.917    -598.972
  C     -438.787     228.652    -599.315
  N     -439.169     228.611    -600.625
  C     -439.511     229.520    -598.367
  C     -439.075     229.503    -597.107
  O     -442.358     232.294    -594.793
  O     -441.938     231.235    -592.471
  H     -435.707     229.138    -593.429
  H     -442.836     231.525    -592.180
  H     -440.345     230.121    -598.704
  H     -439.550     230.109    -596.345
  H     -437.086     227.678    -595.191
  H     -435.973     230.145    -596.065
  H     -437.782     231.426    -595.092
  H     -437.587     229.538    -592.683
  H     -438.627     228.033    -601.242
  H     -440.072     229.989    -592.604
  H     -439.918     229.162    -601.004
  H     -439.070     231.395    -592.196
  P     -436.789     233.204    -593.385
  C     -436.286     233.754    -595.852
  O     -435.973     234.033    -594.493
  O     -436.698     233.747    -592.001
  O     -438.298     233.280    -593.930
  H     -438.824     233.831    -593.324
  H     -435.928     234.581    -596.466
  H     -437.361     233.638    -595.986
  H     -435.766     232.837    -596.155
  H     -440.841     234.630    -591.232
  H     -440.558     232.917    -591.034
  H     -442.184     233.512    -591.274

 3  4  5  6  7  8  9  10  11  12  13  23  27  28  29  30  32 0
 6-311+G(2d,p)
 ****
 34  35 0
 6-311+G(2d,p)
 ****
 1  2  14  15  16  17  18  19  20  21  22  24  25  26 0
 3-21G
 ****
 31  33  36  37  38  39  40  41  42  43  44  45  46 0
 3-21G
 ****


