%nproc=1
%NoSave
%Mem=1900MB
#P OB98/GEN NMR

erre ene a

0 1
  C     -421.913    -419.455    -405.238
  O     -420.863    -419.614    -406.165
  H     -422.488    -418.564    -405.503
  H     -421.505    -419.318    -404.230
  H     -422.585    -420.322    -405.251
  P     -419.978    -420.952    -406.113
  C     -420.234    -421.515    -408.622
  O     -419.348    -421.147    -407.574
  C     -419.808    -420.877    -409.943
  O     -420.277    -419.487    -409.966
  C     -418.281    -420.834    -410.171
  O     -418.064    -420.903    -411.591
  C     -417.940    -419.460    -409.623
  O     -416.640    -419.053    -409.948
  C     -419.115    -418.660    -410.213
  N     -419.302    -417.322    -409.656
  C     -419.023    -416.238    -410.479
  O     -418.632    -416.322    -411.645
  N     -419.205    -414.997    -409.908
  C     -419.637    -414.755    -408.641
  O     -419.813    -413.628    -408.199
  C     -419.911    -415.945    -407.816
  C     -419.740    -417.155    -408.358
  O     -420.656    -422.153    -405.549
  O     -418.704    -420.524    -405.234
  H     -418.807    -420.865    -404.326
  H     -416.531    -418.108    -409.701
  H     -419.016    -414.201    -410.494
  H     -420.244    -415.783    -406.800
  H     -419.937    -418.052    -407.779
  H     -419.001    -418.584    -411.295
  H     -417.988    -419.469    -408.528
  H     -417.757    -421.666    -409.681
  H     -420.318    -421.391    -410.769
  H     -421.243    -421.175    -408.355
  H     -420.244    -422.610    -408.718
  P     -416.654    -421.292    -412.253
  C     -417.293    -423.359    -413.680
  O     -416.944    -421.978    -413.676
  O     -415.775    -422.117    -411.361
  O     -415.954    -419.896    -412.623
  H     -414.991    -420.007    -412.631
  H     -417.457    -423.682    -414.687
  H     -418.186    -423.503    -413.109
  H     -416.498    -423.929    -413.247

 6  7  8  9  10  11  12  13  14  15  16  27  31  32  33  34  35 0
 6-311+G(2d,p)
 ****
 36  37 0
 6-311+G(2d,p)
 ****
 1  2  3  4  5  17  18  19  20  21  22  23  24  25 0
 3-21G
 ****
 26  28  29  30  38  39  40  41  42  43  44  45 0
 3-21G
 ****


