%nproc=1
%NoSave
%Mem=1900MB
#P OB98/GEN NMR

erre ene a

0 1
  C     -272.913    -459.296     550.895
  O     -272.889    -457.866     550.774
  P     -273.623    -456.884     551.808
  C     -272.226    -454.729     552.077
  O     -273.311    -455.359     551.407
  C     -270.951    -454.728     551.219
  O     -271.248    -454.202     549.885
  C     -269.794    -453.889     551.795
  O     -268.587    -454.613     551.521
  C     -269.886    -452.617     550.963
  O     -268.704    -451.836     550.986
  C     -270.229    -453.219     549.600
  N     -270.704    -452.273     548.598
  C     -269.788    -451.324     548.118
  O     -268.644    -451.251     548.559
  N     -270.206    -450.450     547.142
  C     -271.419    -450.499     546.685
  N     -271.753    -449.612     545.717
  C     -272.415    -451.465     547.181
  C     -271.994    -452.310     548.121
  O     -273.326    -457.187     553.243
  O     -275.188    -457.040     551.514
  H     -275.684    -456.967     552.353
  H     -268.522    -451.597     551.913
  H     -273.411    -451.483     546.768
  H     -272.667    -453.072     548.515
  H     -269.359    -453.761     549.210
  H     -270.702    -451.996     551.364
  H     -269.870    -453.725     552.876
  H     -270.636    -455.771     551.080
  H     -271.039    -448.974     545.402
  H     -272.019    -455.281     553.001
  H     -272.668    -449.574     545.286
  H     -272.505    -453.710     552.341
  P     -267.965    -455.561     552.647
  C     -266.625    -457.210     551.137
  O     -266.583    -456.149     552.076
  O     -268.922    -456.843     552.577
  O     -267.935    -455.014     554.036
  H     -268.914    -457.299     553.437
  H     -265.912    -456.988     550.333
  H     -267.612    -457.340     550.696
  H     -266.328    -458.136     551.633
  H     -272.356    -459.731     550.092
  H     -273.925    -459.640     550.855
  H     -272.476    -459.582     551.829

 3  4  5  6  7  8  9  10  11  12  13  24  27  28  29  30  32 0
 6-311+G(2d,p)
 ****
 34  35 0
 6-311+G(2d,p)
 ****
 1  2  14  15  16  17  18  19  20  21  22  23  25  26 0
 3-21G
 ****
 31  33  36  37  38  39  40  41  42  43  44  45  46 0
 3-21G
 ****


