%nproc=1
%NoSave
%Mem=1900MB
#P OB98/GEN NMR

erre ene a

0 1
  C     -164.713     -24.320     359.925
  O     -165.758     -23.404     360.191
  H     -163.756     -23.808     360.053
  H     -164.786     -24.681     358.895
  H     -164.760     -25.164     360.618
  P     -167.246     -23.995     360.228
  C     -167.422     -24.224     362.838
  O     -167.380     -24.869     361.572
  C     -166.861     -25.151     363.915
  O     -165.480     -25.472     363.659
  C     -166.837     -24.540     365.305
  O     -168.123     -24.413     365.870
  C     -165.939     -25.533     366.029
  O     -166.665     -26.717     366.392
  C     -164.893     -25.849     364.933
  N     -163.622     -25.170     365.164
  C     -162.915     -25.572     366.306
  O     -163.366     -26.455     367.037
  N     -161.732     -24.940     366.599
  C     -161.280     -24.015     365.815
  N     -160.109     -23.421     366.168
  C     -161.981     -23.580     364.589
  C     -163.134     -24.189     364.330
  O     -167.211     -25.110     359.084
  O     -168.336     -22.985     360.075
  H     -167.007     -27.094     365.561
  H     -166.486     -25.752     359.188
  H     -161.562     -22.807     363.961
  H     -163.711     -23.930     363.454
  H     -164.695     -26.930     364.887
  H     -165.528     -25.121     366.949
  H     -166.317     -23.571     365.287
  H     -167.441     -26.084     363.896
  H     -159.666     -23.730     367.026
  H     -168.440     -23.919     363.088
  H     -159.678     -22.665     365.654
  H     -166.811     -23.316     362.767
  P     -168.993     -23.086     365.627
  C     -171.194     -24.403     365.397
  O     -170.263     -23.534     364.753
  O     -168.238     -21.923     365.076
  O     -169.649     -22.812     367.064
  H     -170.214     -23.531     367.397
  H     -171.993     -24.632     364.723
  H     -171.589     -23.921     366.267
  H     -170.699     -25.307     365.684

 6  7  8  9  10  11  12  13  14  15  16  26  30  31  32  33  35 0
 6-311+G(2d,p)
 ****
 37  38 0
 6-311+G(2d,p)
 ****
 1  2  3  4  5  17  18  19  20  21  22  23  24  25 0
 3-21G
 ****
 27  28  29  34  36  39  40  41  42  43  44  45  46 0
 3-21G
 ****


