%nproc=1
%NoSave
%Mem=1900MB
#P OB98/GEN NMR

erre ene a

0 1
  C      434.494    -534.187     503.252
  O      433.783    -533.772     504.401
  P      433.754    -534.701     505.714
  C      434.360    -532.717     507.259
  O      433.384    -533.697     506.918
  C      434.264    -532.340     508.739
  O      434.532    -533.491     509.566
  C      435.256    -531.267     509.169
  O      434.822    -529.986     508.744
  C      435.273    -531.473     510.676
  O      434.162    -530.802     511.305
  C      435.123    -533.008     510.805
  N      436.397    -533.669     511.083
  C      436.705    -533.818     512.450
  O      435.938    -533.389     513.308
  N      437.898    -534.426     512.789
  C      438.716    -534.808     511.856
  N      439.882    -535.381     512.257
  C      438.442    -534.620     510.410
  C      437.278    -534.050     510.103
  O      434.973    -535.543     505.934
  O      432.404    -535.553     505.529
  H      434.355    -530.814     512.260
  H      432.519    -536.250     504.850
  H      439.158    -534.950     509.679
  H      437.001    -533.875     509.075
  H      434.419    -533.259     511.600
  H      436.192    -531.079     511.138
  H      436.259    -531.494     508.758
  H      433.235    -532.002     508.941
  H      440.042    -535.463     513.258
  H      434.178    -531.825     506.649
  H      440.604    -535.685     511.613
  H      435.348    -533.094     507.015
  P      435.889    -528.878     508.343
  C      434.172    -527.896     506.719
  O      435.095    -527.612     507.747
  O      437.041    -529.355     507.511
  O      436.413    -528.311     509.756
  H      437.376    -528.232     509.725
  H      433.470    -527.054     506.622
  H      433.599    -528.802     506.932
  H      434.703    -528.014     505.762
  H      434.399    -533.445     502.487
  H      434.094    -535.115     502.901
  H      435.527    -534.315     503.499

 3  4  5  6  7  8  9  10  11  12  13  23  27  28  29  30  32 0
 6-311+G(2d,p)
 ****
 34  35 0
 6-311+G(2d,p)
 ****
 1  2  14  15  16  17  18  19  20  21  22  24  25  26 0
 3-21G
 ****
 31  33  36  37  38  39  40  41  42  43  44  45  46 0
 3-21G
 ****


