%nproc=1
%NoSave
%Mem=1900MB
#P OB98/GEN NMR

erre ene a

0 1
  C        2.758     -64.212      65.849
  O        3.904     -63.742      65.133
  P        3.968     -62.170      64.826
  C        4.764     -61.320      67.148
  O        5.083     -61.520      65.778
  C        5.553     -60.135      67.704
  O        4.907     -59.557      68.860
  C        6.954     -60.507      68.172
  O        7.824     -60.704      67.070
  C        7.295     -59.302      69.041
  O        7.703     -58.191      68.225
  C        5.941     -58.989      69.700
  N        6.005     -57.841      74.685
  C        6.161     -57.079      73.581
  N        6.133     -57.461      72.287
  C        5.905     -58.780      72.186
  C        5.721     -59.683      73.221
  C        5.783     -59.166      74.526
  N        5.639     -59.945      75.651
  N        5.515     -60.954      72.726
  C        5.596     -60.824      71.417
  N        5.818     -59.527      71.042
  O        2.590     -61.620      65.424
  O        4.107     -61.847      63.375
  H        7.915     -57.450      68.827
  H        1.987     -61.373      64.699
  H        6.333     -56.020      73.759
  H        5.500     -61.635      70.705
  H        5.751     -57.912      69.767
  H        8.102     -59.500      69.752
  H        6.919     -61.415      68.786
  H        5.614     -59.368      66.920
  H        4.992     -62.219      67.725
  H        5.775     -59.510      76.549
  H        5.560     -60.947      75.545
  H        3.685     -61.154      67.237
  P        8.556     -62.124      66.942
  C        7.600     -62.511      64.590
  O        8.770     -62.300      65.359
  O        7.358     -63.135      67.248
  O        9.776     -62.282      67.783
  H        6.547     -62.889      66.767
  H        7.883     -62.579      63.537
  H        6.907     -61.677      64.720
  H        7.121     -63.447      64.888
  H        2.834     -65.270      65.989
  H        1.873     -63.989      65.291
  H        2.710     -63.728      66.802

 3  4  5  6  7  8  9  10  11  12  22  25  29  30  31  32 0
 6-311+G(2d,p)
 ****
 33  36  37 0
 6-311+G(2d,p)
 ****
 1  2  13  14  15  16  17  18  19  20  21  23  24  26 0
 3-21G
 ****
 27  28  34  35  38  39  40  41  42  43  44  45  46  47  48 0
 3-21G
 ****


