%nproc=1
%NoSave
%Mem=1900MB
#P OB98/GEN NMR

erre ene a

0 1
  C     -913.259     235.636     126.108
  O     -913.658     236.035     124.795
  P     -915.073     236.774     124.643
  C     -916.066     234.594     123.562
  O     -915.840     236.006     123.471
  C     -916.978     234.127     122.433
  O     -918.236     234.886     122.444
  C     -916.401     234.333     121.029
  O     -915.400     233.376     120.762
  C     -917.660     234.207     120.187
  O     -917.996     232.840     119.977
  C     -918.723     234.898     121.073
  N     -919.053     236.255     120.645
  C     -919.840     236.332     119.489
  O     -920.204     235.356     118.847
  N     -920.161     237.600     119.078
  C     -919.765     238.765     119.693
  O     -920.101     239.873     119.293
  C     -918.902     238.605     120.885
  C     -918.584     237.377     121.294
  O     -914.625     238.162     123.984
  O     -915.810     236.888     125.932
  H     -913.886     238.071     123.376
  H     -918.853     232.834     119.481
  H     -920.731     237.692     118.264
  H     -918.557     239.504     121.362
  H     -917.959     237.246     122.155
  H     -919.643     234.299     121.084
  H     -917.541     234.667     119.195
  H     -915.985     235.345     120.946
  H     -917.217     233.080     122.598
  H     -916.526     234.367     124.528
  H     -915.106     234.083     123.519
  P     -913.879     233.796     121.062
  C     -913.477     234.077     118.495
  O     -913.045     233.526     119.710
  O     -913.424     232.628     122.058
  O     -913.738     235.171     121.625
  H     -913.701     231.739     121.755
  H     -912.629     234.075     117.803
  H     -913.816     235.111     118.621
  H     -914.276     233.469     118.060
  H     -912.302     235.159     126.061
  H     -913.979     234.953     126.507
  H     -913.197     236.498     126.739

 3  4  5  6  7  8  9  10  11  12  13  24  28  29  30  31  32 0
 6-311+G(2d,p)
 ****
 33  34 0
 6-311+G(2d,p)
 ****
 1  2  14  15  16  17  18  19  20  21  22  23  25  26  27 0
 3-21G
 ****
 35  36  37  38  39  40  41  42  43  44  45 0
 3-21G
 ****


