%nproc=1
%NoSave
%Mem=1900MB
#P OB98/GEN NMR

erre ene a

0 1
  C     -294.945     -84.621     143.405
  O     -296.014     -85.550     143.334
  P     -295.795     -86.978     144.035
  C     -295.100     -87.931     141.714
  O     -294.771     -87.776     143.093
  C     -294.381     -89.147     141.135
  O     -292.958     -88.933     141.150
  C     -294.609     -90.432     141.908
  O     -295.885     -90.970     141.613
  C     -293.446     -91.290     141.427
  O     -293.783     -91.978     140.210
  C     -292.338     -90.237     141.178
  N     -291.271     -90.304     142.165
  C     -290.155     -91.063     141.811
  O     -290.121     -91.644     140.723
  N     -289.122     -91.180     142.713
  C     -289.210     -90.594     143.866
  N     -288.156     -90.736     144.719
  C     -290.380     -89.798     144.286
  C     -291.373     -89.702     143.399
  O     -297.191     -87.722     143.786
  O     -295.434     -86.917     145.483
  H     -293.018     -92.557     140.015
  H     -297.352     -88.394     144.476
  H     -290.401     -89.329     145.261
  H     -292.269     -89.138     143.628
  H     -291.889     -90.389     140.186
  H     -293.171     -92.052     142.158
  H     -294.517     -90.254     142.988
  H     -294.699     -89.264     140.088
  H     -287.369     -91.292     144.404
  H     -294.784     -87.037     141.169
  H     -288.117     -90.299     145.629
  H     -296.185     -88.034     141.617
  P     -296.618     -91.822     142.756
  C     -296.531     -94.025     141.440
  O     -296.064     -93.316     142.574
  O     -298.113     -91.946     142.178
  O     -296.593     -91.270     144.140
  H     -298.688     -92.366     142.844
  H     -295.966     -94.953     141.353
  H     -296.383     -93.433     140.532
  H     -297.589     -94.265     141.564
  H     -295.223     -83.719     142.901
  H     -294.078     -85.038     142.937
  H     -294.728     -84.405     144.430

 3  4  5  6  7  8  9  10  11  12  13  21  23  27  28  29  30  32 0
 6-311+G(2d,p)
 ****
 34  35 0
 6-311+G(2d,p)
 ****
 1  2  14  15  16  17  18  19  20  22  24  25  26 0
 3-21G
 ****
 31  33  36  37  38  39  40  41  42  43  44  45  46 0
 3-21G
 ****


