%nproc=1
%NoSave
%Mem=1900MB
#P OB98/GEN NMR

erre ene a

0 1
  C     -508.393    -760.190     -19.902
  O     -509.118    -761.369     -20.178
  H     -508.234    -759.647     -20.836
  H     -507.419    -760.449     -19.478
  H     -508.942    -759.545     -19.208
  P     -509.730    -762.160     -18.925
  C     -511.950    -762.717     -20.139
  O     -510.784    -763.224     -19.506
  C     -511.633    -762.286     -21.570
  O     -511.002    -763.390     -22.265
  C     -512.865    -761.866     -22.382
  O     -512.526    -760.757     -23.211
  C     -513.148    -763.086     -23.245
  O     -513.852    -762.755     -24.441
  C     -511.737    -763.617     -23.480
  N     -512.159    -766.886     -27.296
  C     -512.090    -765.507     -27.305
  N     -512.145    -764.906     -28.512
  N     -511.973    -764.781     -26.222
  C     -511.892    -765.519     -25.089
  C     -511.955    -766.887     -24.947
  C     -512.113    -767.676     -26.148
  O     -512.205    -768.900     -26.203
  N     -511.872    -767.252     -23.626
  C     -511.757    -766.109     -22.973
  N     -511.758    -765.031     -23.817
  O     -510.656    -761.064     -18.217
  O     -508.728    -762.722     -17.973
  H     -514.651    -762.249     -24.181
  H     -510.307    -760.860     -17.328
  H     -512.266    -767.396     -28.153
  H     -511.679    -766.005     -21.901
  H     -511.227    -763.097     -24.296
  H     -513.755    -763.806     -22.682
  H     -512.184    -765.403     -29.383
  H     -513.724    -761.606     -21.753
  H     -512.055    -763.897     -28.547
  H     -510.899    -761.472     -21.533
  H     -512.318    -761.857     -19.573
  H     -512.721    -763.496     -20.150
  P     -512.911    -759.297     -22.666
  C     -510.682    -758.264     -23.480
  O     -512.101    -758.210     -23.524
  O     -512.209    -759.243     -21.230
  O     -514.383    -759.062     -22.561
  H     -512.885    -759.302     -20.527
  H     -510.276    -757.487     -24.094
  H     -510.350    -759.214     -23.842
  H     -510.351    -758.131     -22.471

 6  7  8  9  10  11  12  13  14  15  26  29  33  34 0
 6-311+G(2d,p)
 ****
 36  38  39  40  41 0
 6-311+G(2d,p)
 ****
 1  2  3  4  5  16  17  18  19  20  21  22  23  24  25 0
 3-21G
 ****
 27  28  30  31  32  35  37  42  43  44  45  46  47 0
 3-21G
 ****
 48  49 0
 3-21G
 ****


