%nproc=1
%NoSave
%Mem=1900MB
#P OB98/GEN NMR

erre ene a

0 1
  C      322.858     163.935     419.677
  O      321.593     163.642     419.107
  P      320.879     162.228     419.362
  C      321.292     159.908     418.333
  O      321.877     161.142     418.734
  C      322.172     159.223     417.294
  O      323.503     159.080     417.847
  C      321.754     157.809     416.892
  O      320.762     157.753     415.880
  C      323.069     157.273     416.337
  O      323.275     157.774     415.004
  C      324.097     157.879     417.297
  N      326.500     153.522     418.493
  C      326.349     154.181     417.320
  N      325.679     155.326     417.081
  C      325.161     155.820     418.219
  C      325.236     155.265     419.486
  C      325.945     154.058     419.604
  N      326.117     153.400     420.803
  N      324.564     156.052     420.403
  C      324.107     157.066     419.698
  N      324.450     156.975     418.378
  O      319.466     162.158     418.896
  O      321.027     161.986     420.935
  H      324.173     157.501     414.734
  H      320.403     161.294     421.226
  H      326.829     153.724     416.459
  H      323.525     157.883     420.099
  H      325.024     158.176     416.790
  H      323.088     156.180     416.276
  H      321.464     157.213     417.766
  H      322.242     159.872     416.416
  H      320.312     160.122     417.892
  H      326.747     152.615     420.815
  H      325.842     153.881     421.652
  H      321.143     159.271     419.208
  P      320.016     156.345     415.663
  C      320.870     153.904     415.259
  O      321.183     155.255     415.516
  O      318.998     156.346     414.575
  O      319.404     156.042     417.111
  H      320.060     155.860     417.805
  H      321.793     153.366     415.035
  H      320.198     153.815     414.399
  H      320.402     153.453     416.139
  H      323.159     164.921     419.390
  H      323.579     163.226     419.328
  H      322.790     163.880     420.743

 3  4  5  6  7  8  9  10  11  12  22  25  29  30  31  32 0
 6-311+G(2d,p)
 ****
 33  36  37 0
 6-311+G(2d,p)
 ****
 1  2  13  14  15  16  17  18  19  20  21  23  24  26 0
 3-21G
 ****
 27  28  34  35  38  39  40  41  42  43  44  45  46  47  48 0
 3-21G
 ****


