%nproc=1
%NoSave
%Mem=1900MB
#P OB98/GEN NMR

erre ene a

0 1
  C     -391.692     345.758     -55.746
  O     -391.354     347.108     -56.102
  P     -390.248     347.482     -57.203
  C     -391.859     347.650     -59.218
  O     -390.960     348.338     -58.359
  C     -391.926     348.338     -60.593
  O     -392.575     347.467     -61.555
  C     -392.743     349.618     -60.639
  O     -392.086     350.703     -60.020
  C     -392.953     349.785     -62.142
  O     -391.830     350.436     -62.755
  C     -393.043     348.321     -62.625
  N     -394.380     347.941     -63.052
  C     -394.641     348.002     -64.420
  O     -393.795     348.436     -65.197
  N     -395.874     347.576     -64.872
  C     -396.784     347.227     -64.022
  N     -397.979     346.807     -64.530
  C     -396.593     347.289     -62.563
  C     -395.381     347.646     -62.148
  O     -389.480     346.307     -57.714
  O     -389.278     348.537     -56.486
  H     -388.394     348.496     -56.893
  H     -391.070     349.829     -62.659
  H     -397.404     347.027     -61.886
  H     -395.146     347.697     -61.091
  H     -392.345     348.148     -63.453
  H     -393.841     350.380     -62.378
  H     -393.713     349.444     -60.151
  H     -390.896     348.527     -60.932
  H     -398.072     346.767     -65.534
  H     -392.859     347.668     -58.769
  H     -398.744     346.489     -63.954
  H     -391.539     346.608     -59.319
  P     -393.001     351.783     -59.267
  C     -393.527     350.970     -56.857
  O     -392.666     351.701     -57.705
  O     -394.476     351.166     -59.377
  O     -392.946     353.156     -59.851
  H     -395.122     351.880     -59.533
  H     -392.958     350.606     -56.001
  H     -393.975     350.113     -57.380
  H     -394.331     351.626     -56.496
  H     -392.452     345.767     -54.993
  H     -390.823     345.260     -55.369
  H     -392.052     345.241     -56.611

 3  4  5  6  7  8  9  10  11  12  13  24  27  28  29  30  32 0
 6-311+G(2d,p)
 ****
 34  35 0
 6-311+G(2d,p)
 ****
 1  2  14  15  16  17  18  19  20  21  22  23  25  26 0
 3-21G
 ****
 31  33  36  37  38  39  40  41  42  43  44  45  46 0
 3-21G
 ****


