%nproc=1
%NoSave
%Mem=1900MB
#P OB98/GEN NMR

erre ene a

0 1
  C       42.538     -14.654    -255.705
  O       41.617     -13.599    -255.505
  H       42.607     -15.241    -254.786
  H       43.532     -14.252    -255.939
  H       42.197     -15.303    -256.516
  P       41.401     -12.589    -256.737
  C       39.274     -11.709    -257.929
  O       39.835     -12.699    -257.072
  C       38.559     -12.367    -259.107
  O       39.502     -13.079    -259.927
  C       37.484     -13.375    -258.710
  O       36.266     -12.717    -258.410
  C       37.378     -14.199    -259.982
  O       36.542     -13.508    -260.932
  C       38.832     -14.236    -260.491
  N       39.657     -19.189    -261.567
  C       38.703     -18.328    -261.990
  N       38.512     -17.042    -261.619
  C       39.437     -16.655    -260.728
  C       40.467     -17.430    -260.204
  C       40.567     -18.754    -260.663
  N       41.539     -19.633    -260.230
  N       41.224     -16.700    -259.306
  C       40.694     -15.493    -259.334
  N       39.588     -15.423    -260.146
  O       42.336     -12.762    -257.886
  O       41.498     -11.174    -255.990
  H       36.834     -12.577    -260.948
  H       41.035     -11.208    -255.133
  H       37.999     -18.724    -262.714
  H       41.080     -14.629    -258.799
  H       38.881     -14.141    -261.588
  H       36.924     -15.179    -259.817
  H       37.821     -14.024    -257.890
  H       38.126     -11.566    -259.725
  H       40.062     -11.039    -258.297
  H       41.415     -20.603    -260.464
  H       42.127     -19.342    -259.467
  H       38.569     -11.119    -257.333
  P       35.206     -13.359    -257.389
  C       33.893     -12.477    -255.358
  O       34.891     -12.189    -256.334
  O       35.625     -14.662    -256.800
  O       33.852     -13.456    -258.232
  H       33.231     -14.071    -257.792
  H       33.769     -11.631    -254.714
  H       34.195     -13.325    -254.779
  H       32.966     -12.691    -255.848

 6  7  8  9  10  11  12  13  14  15  25  28  32  33  34  35 0
 6-311+G(2d,p)
 ****
 36  39  40 0
 6-311+G(2d,p)
 ****
 1  2  3  4  5  16  17  18  19  20  21  22  23  24 0
 3-21G
 ****
 26  27  29  30  31  37  38  41  42  43  44  45  46  47 0
 3-21G
 ****
 48 0
 3-21G
 ****


