%nproc=1
%NoSave
%Mem=1900MB
#P OB98/GEN NMR

erre ene a

0 1
  C     -168.966      92.447     -73.311
  O     -168.405      92.224     -72.028
  P     -169.332      91.824     -70.778
  C     -168.980      90.205     -68.795
  O     -168.617      90.546     -70.125
  C     -167.934      89.270     -68.195
  O     -168.095      87.948     -68.746
  C     -166.492      89.667     -68.485
  O     -166.086      90.753     -67.667
  C     -165.773      88.348     -68.230
  O     -165.584      88.147     -66.820
  C     -166.790      87.322     -68.772
  N     -166.460      86.851     -70.112
  C     -165.975      85.543     -70.212
  O     -165.850      84.835     -69.214
  N     -165.675      85.047     -71.456
  C     -165.820      85.795     -72.506
  N     -165.572      85.229     -73.718
  C     -166.274      87.196     -72.439
  C     -166.577      87.652     -71.226
  O     -170.774      91.634     -71.103
  O     -169.058      92.963     -69.694
  H     -165.187      87.260     -66.713
  H     -169.653      93.747     -69.786
  H     -166.367      87.785     -73.341
  H     -166.937      88.664     -71.095
  H     -166.853      86.459     -68.100
  H     -164.792      88.284     -68.711
  H     -166.378      89.950     -69.538
  H     -168.104      89.214     -67.112
  H     -165.435      84.224     -73.729
  H     -169.948      89.693     -68.817
  H     -165.928      85.635     -74.573
  H     -169.079      91.119     -68.202
  P     -164.567      91.250     -67.794
  C     -163.353      93.513     -67.430
  O     -164.582      92.809     -67.410
  O     -164.305      91.229     -69.371
  O     -163.581      90.417     -67.044
  H     -163.798      90.433     -69.620
  H     -163.567      94.583     -67.384
  H     -162.802      93.303     -68.350
  H     -162.752      93.235     -66.561
  H     -168.189      92.701     -74.001
  H     -169.671      93.250     -73.257
  H     -169.462      91.559     -73.643

 3  4  5  6  7  8  9  10  11  12  13  23  27  28  29  30  32 0
 6-311+G(2d,p)
 ****
 34  35 0
 6-311+G(2d,p)
 ****
 1  2  14  15  16  17  18  19  20  21  22  24  25  26 0
 3-21G
 ****
 31  33  36  37  38  39  40  41  42  43  44  45  46 0
 3-21G
 ****


