%nproc=1
%NoSave
%Mem=1900MB
#P OB98/GEN NMR

erre ene a

0 1
  C      950.032     134.694    -287.810
  O      950.261     136.082    -287.955
  H      950.983     134.206    -287.559
  H      949.666     134.278    -288.751
  H      949.316     134.495    -287.015
  P      948.999     137.065    -288.055
  C      949.567     138.985    -289.688
  O      949.590     138.535    -288.341
  C      950.677     140.016    -289.933
  O      950.716     140.930    -288.790
  C      952.089     139.397    -290.079
  O      952.822     140.237    -290.990
  C      952.612     139.537    -288.663
  O      954.003     139.339    -288.591
  C      952.085     140.932    -288.313
  N      952.154     141.243    -286.888
  C      953.297     141.892    -286.436
  O      954.224     142.234    -287.159
  N      953.340     142.140    -285.080
  C      952.373     141.794    -284.180
  O      952.457     142.058    -282.977
  C      951.208     141.086    -284.711
  C      951.149     140.852    -286.030
  O      948.023     136.990    -286.933
  O      948.323     136.674    -289.460
  H      947.578     136.063    -289.295
  H      954.306     139.426    -287.661
  H      954.167     142.601    -284.729
  H      950.431     140.789    -284.019
  H      950.300     140.326    -286.465
  H      952.621     141.701    -288.881
  H      952.155     138.775    -288.012
  H      952.067     138.374    -290.461
  H      950.414     140.617    -290.810
  H      948.589     139.443    -289.885
  H      949.702     138.123    -290.356
  P      953.046     139.873    -292.531
  C      955.582     140.340    -292.509
  O      954.335     140.671    -293.081
  O      951.826     140.073    -293.377
  O      953.498     138.341    -292.559
  H      953.129     137.910    -293.343
  H      956.349     140.936    -292.957
  H      955.789     139.304    -292.680
  H      955.553     140.529    -291.456

 6  7  8  9  10  11  12  13  14  15  16  27  31  32  33  34  35 0
 6-311+G(2d,p)
 ****
 36  37 0
 6-311+G(2d,p)
 ****
 1  2  3  4  5  17  18  19  20  21  22  23  24  25 0
 3-21G
 ****
 26  28  29  30  38  39  40  41  42  43  44  45 0
 3-21G
 ****


