%nproc=1
%NoSave
%Mem=1900MB
#P OB98/GEN NMR

erre ene a

0 1
  C      988.908      52.283    -233.480
  O      987.820      53.127    -233.127
  P      986.475      52.418    -232.596
  C      985.287      54.679    -233.076
  O      985.267      53.271    -233.231
  C      984.299      55.348    -234.042
  O      984.754      55.174    -235.397
  C      982.897      54.764    -233.991
  O      982.141      55.286    -232.908
  C      982.343      55.240    -235.339
  O      981.874      56.602    -235.207
  C      983.574      55.159    -236.246
  N      982.182      53.141    -240.678
  C      981.973      54.419    -240.190
  N      981.327      55.285    -240.996
  N      982.372      54.812    -238.992
  C      983.038      53.851    -238.316
  C      983.310      52.545    -238.700
  C      982.825      52.119    -239.999
  O      982.920      50.991    -240.458
  N      984.021      51.880    -237.735
  C      984.224      52.775    -236.788
  N      983.614      53.982    -237.084
  O      986.438      52.838    -231.043
  O      986.428      50.944    -232.776
  H      982.613      57.116    -234.827
  H      985.924      52.181    -230.534
  H      981.878      52.900    -241.613
  H      984.793      52.603    -235.893
  H      983.640      56.051    -236.889
  H      981.495      54.650    -235.667
  H      981.125      55.089    -241.964
  H      982.919      53.666    -233.984
  H      981.196      56.237    -240.667
  H      984.281      56.425    -233.827
  H      986.294      55.064    -233.296
  H      985.041      54.935    -232.046
  P      980.679      54.643    -232.678
  C      979.971      57.078    -232.096
  O      979.661      55.876    -232.776
  O      980.700      54.275    -231.119
  O      980.378      53.466    -233.542
  H      980.056      53.546    -230.942
  H      981.049      57.276    -232.111
  H      979.636      56.996    -231.063
  H      979.450      57.909    -232.594
  H      989.730      52.881    -233.813
  H      988.606      51.622    -234.265
  H      989.207      51.710    -232.627

 3  4  5  6  7  8  9  10  11  12  23  26  30  31  33  0
 6-311+G(2d,p)
 ****
 35  36  37  38 0
 6-311+G(2d,p)
 ****
 1  2  13  14  15  16  17  18  19  20  21  22  24  25  27  28  29 0
 3-21G
 ****
 32  34  39  40  41  42  43  44  45  46  47  48  49 0
 3-21G
 ****


