%nproc=1
%NoSave
%Mem=1900MB
#P OB98/GEN NMR

erre ene a

0 1
  C     1135.007    -891.540    -549.832
  O     1135.825    -892.690    -549.784
  H     1134.816    -891.290    -550.878
  H     1135.506    -890.690    -549.355
  H     1134.052    -891.730    -549.326
  P     1136.318    -893.170    -548.336
  C     1138.784    -892.640    -549.004
  O     1137.855    -893.600    -548.487
  C     1140.018    -893.380    -549.537
  O     1140.692    -894.060    -548.445
  C     1139.701    -894.460    -550.563
  O     1139.465    -893.940    -551.858
  C     1140.986    -895.290    -550.512
  O     1142.010    -894.720    -551.362
  C     1141.382    -895.200    -549.032
  N     1141.089    -896.440    -548.321
  C     1142.123    -897.340    -548.224
  O     1143.254    -897.140    -548.729
  N     1141.863    -898.530    -547.602
  C     1140.645    -898.890    -547.104
  O     1140.454    -900.000    -546.587
  C     1139.560    -897.910    -547.231
  C     1139.829    -896.730    -547.825
  O     1135.545    -894.550    -548.123
  O     1136.046    -892.220    -547.227
  H     1134.825    -894.450    -547.489
  H     1142.832    -895.200    -551.107
  H     1142.607    -899.200    -547.531
  H     1138.574    -898.170    -546.853
  H     1139.041    -896.000    -547.952
  H     1142.460    -894.990    -548.936
  H     1140.811    -896.310    -550.846
  H     1138.864    -895.070    -550.213
  H     1140.704    -892.650    -549.955
  H     1139.085    -891.970    -548.195
  H     1138.292    -892.070    -549.786
  P     1138.196    -894.520    -552.672
  C     1139.311    -894.660    -555.058
  O     1138.374    -894.020    -554.186
  O     1137.023    -893.610    -552.085
  O     1138.010    -896.000    -552.490
  H     1137.345    -892.740    -551.774
  H     1139.285    -894.188    -556.018
  H     1139.054    -895.693    -555.161
  H     1140.295    -894.577    -554.647

 6  7  8  9  10  11  12  13  14  15  16  27  31  32  33  34  35 0
 6-311+G(2d,p)
 ****
 36  37 0
 6-311+G(2d,p)
 ****
 1  2  3  4  5  17  18  19  20  21  22  23  24  25 0
 3-21G
 ****
 26  28  29  30  38  39  40  41  42  43  44  45 0
 3-21G
 ****


