%nproc=1
%NoSave
%Mem=1900MB
#P OB98/GEN NMR

erre ene a

0 1
  C     -372.715     -17.795     -78.162
  O     -371.572     -16.963     -78.054
  P     -371.386     -15.796     -79.144
  C     -370.255     -17.216     -81.011
  O     -371.404     -16.506     -80.584
  C     -370.056     -17.057     -82.524
  O     -371.240     -17.556     -83.198
  C     -369.843     -15.613     -82.995
  O     -368.978     -15.671     -84.136
  C     -371.234     -15.187     -83.432
  O     -371.214     -14.086     -84.337
  C     -371.755     -16.489     -84.026
  N     -375.897     -15.658     -86.812
  C     -374.569     -15.398     -87.097
  N     -374.310     -14.898     -88.324
  N     -373.588     -15.606     -86.261
  C     -374.001     -16.125     -85.077
  C     -375.283     -16.385     -84.662
  C     -376.357     -16.184     -85.611
  O     -377.535     -16.485     -85.429
  N     -375.315     -16.819     -83.362
  C     -374.041     -16.894     -83.019
  N     -373.207     -16.524     -84.042
  O     -369.855     -15.367     -78.951
  O     -372.327     -14.640     -79.020
  H     -372.134     -13.802     -84.484
  H     -369.779     -14.611     -78.337
  H     -376.609     -15.494     -87.508
  H     -373.667     -17.208     -82.060
  H     -371.409     -16.652     -85.054
  H     -371.820     -14.886     -82.556
  H     -375.012     -14.740     -89.035
  H     -369.422     -14.958     -82.226
  H     -373.339     -14.728     -88.575
  H     -369.213     -17.689     -82.828
  H     -370.391     -18.278     -80.788
  H     -369.373     -16.858     -80.468
  P     -367.809     -14.577     -84.243
  C     -369.302     -13.047     -85.711
  O     -368.491     -13.164     -84.556
  O     -367.097     -14.955     -85.635
  O     -366.824     -14.595     -83.122
  H     -366.148     -14.743     -85.580
  H     -369.988     -12.208     -85.577
  H     -369.886     -13.955     -85.887
  H     -368.668     -12.852     -86.579
  H     -372.704     -18.520     -77.375
  H     -372.704     -18.296     -79.108
  H     -373.599     -17.198     -78.085

 3  4  5  6  7  8  9  10  11  12  23  26  30  31 0
 6-311+G(2d,p)
 ****
 33  35  36  37  38 0
 6-311+G(2d,p)
 ****
 1  2  13  14  15  16  17  18  19  20  21  22  24  25 0
 3-21G
 ****
 27  28  29  32  34  39  40  41  42  43  44  45  46  47  48  49 0
 3-21G
 ****


