%nproc=1
%NoSave
%Mem=1900MB
#P OB98/GEN NMR

erre ene a

0 1
  C     -312.822    -452.617     106.924
  O     -313.814    -451.624     107.130
  P     -315.267    -451.912     106.523
  C     -316.229    -452.103     104.103
  O     -315.113    -451.833     104.932
  C     -315.838    -451.947     102.632
  O     -314.868    -452.959     102.269
  C     -316.994    -452.093     101.654
  O     -317.714    -450.882     101.567
  C     -316.264    -452.478     100.374
  O     -315.718    -451.309      99.725
  C     -315.143    -453.390     100.901
  N     -316.298    -457.308      97.924
  C     -316.183    -455.975      97.625
  N     -316.366    -455.629      96.324
  N     -315.917    -455.041      98.509
  C     -315.776    -455.528      99.765
  C     -315.882    -456.829     100.197
  C     -316.118    -457.850      99.196
  O     -316.127    -459.066      99.401
  N     -315.696    -456.933     101.551
  C     -315.442    -455.693     101.930
  N     -315.470    -454.799     100.885
  O     -316.088    -450.590     106.905
  O     -315.934    -453.156     107.020
  H     -316.458    -450.757      99.402
  H     -316.633    -450.737     107.702
  H     -316.479    -457.982      97.204
  H     -315.230    -455.391     102.943
  H     -314.217    -453.271     100.336
  H     -316.927    -452.959      99.652
  H     -316.600    -456.278      95.593
  H     -317.654    -452.918     101.965
  H     -316.295    -454.643      96.089
  H     -315.349    -450.973     102.520
  H     -317.029    -451.398     104.339
  H     -316.593    -453.124     104.307
  P     -319.033    -450.868     100.647
  C     -319.263    -450.962      98.065
  O     -318.576    -450.423      99.174
  O     -319.852    -449.603     101.188
  O     -319.848    -452.115     100.714
  H     -320.804    -449.793     101.155
  H     -319.239    -450.227      97.248
  H     -320.316    -451.185      98.299
  H     -318.774    -451.876      97.733
  H     -311.904    -452.303     107.376
  H     -312.672    -452.759     105.874
  H     -313.141    -453.537     107.366

 3  4  5  6  7  8  9  10  11  12  23  26  30  31 0
 6-311+G(2d,p)
 ****
 33  35  36  37  38 0
 6-311+G(2d,p)
 ****
 1  2  13  14  15  16  17  18  19  20  21  22  24  25 0
 3-21G
 ****
 27  28  29  32  34  39  40  41  42  43  44  45  46  47  48  49 0
 3-21G
 ****


