%nproc=1
%NoSave
%Mem=1900MB
#P OB98/GEN NMR

erre ene a

0 1
  C      795.624    -661.965    -147.823
  O      796.402    -661.535    -146.690
  P      797.535    -662.546    -146.179
  C      799.493    -661.297    -147.357
  O      798.759    -662.519    -147.244
  C      801.000    -661.596    -147.629
  O      801.637    -661.995    -146.366
  C      801.278    -662.714    -148.651
  O      802.436    -662.342    -149.413
  C      801.664    -663.891    -147.763
  O      802.429    -664.839    -148.497
  C      802.401    -663.190    -146.645
  N      804.761    -667.101    -144.477
  C      805.024    -666.466    -145.672
  N      806.024    -666.992    -146.398
  N      804.333    -665.433    -146.115
  C      803.395    -665.024    -145.237
  C      803.035    -665.514    -143.996
  C      803.792    -666.705    -143.563
  O      803.570    -667.344    -142.510
  N      802.011    -664.833    -143.429
  C      801.713    -663.898    -144.311
  N      802.533    -663.964    -145.434
  O      796.910    -663.997    -146.382
  O      797.953    -662.332    -144.739
  H      803.223    -664.382    -148.841
  H      796.871    -664.481    -145.535
  H      805.289    -667.902    -144.172
  H      800.933    -663.158    -144.217
  H      803.392    -662.869    -146.936
  H      800.751    -664.401    -147.439
  H      806.633    -667.752    -146.097
  H      800.453    -662.915    -149.321
  H      806.258    -666.510    -147.298
  H      801.480    -660.657    -147.932
  H      799.396    -660.714    -146.448
  H      799.087    -660.743    -148.188
  P      802.277    -662.278    -151.005
  C      803.507    -659.995    -150.846
  O      802.454    -660.734    -151.419
  O      800.693    -662.535    -151.213
  O      803.104    -663.222    -151.777
  H      800.529    -662.924    -152.120
  H      804.196    -660.602    -150.287
  H      803.080    -659.265    -150.126
  H      804.030    -659.458    -151.636
  H      794.905    -661.211    -148.069
  H      795.117    -662.876    -147.583
  H      796.271    -662.127    -148.659

 3  4  5  6  7  8  9  10  11  12  23  26  30  31  33  0
 6-311+G(2d,p)
 ****
 35  36  37  38 0
 6-311+G(2d,p)
 ****
 1  2  13  14  15  16  17  18  19  20  21  22  24  25  27  28  29 0
 3-21G
 ****
 32  34  39  40  41  42  43  44  45  46  47  48  49 0
 3-21G
 ****


