%nproc=1
%NoSave
%Mem=1900MB
#P OB98/GEN NMR

erre ene a

0 1
  C      123.713     186.208       9.366
  O      123.142     185.039       9.911
  H      123.258     187.080       9.846
  H      123.519     186.256       8.293
  H      124.792     186.226       9.552
  P      123.673     183.638       9.338
  C      125.941     183.532      10.593
  O      125.279     183.726       9.349
  C      127.368     183.026      10.366
  O      127.313     181.786       9.604
  C      128.256     184.009       9.587
  O      129.583     183.952      10.123
  C      128.265     183.423       8.186
  O      129.404     183.841       7.441
  C      128.225     181.930       8.502
  N      129.566     180.489       3.870
  C      130.240     181.255       4.802
  N      131.459     181.716       4.448
  N      129.758     181.548       5.980
  C      128.538     181.006       6.212
  C      127.765     180.241       5.374
  C      128.303     179.942       4.061
  O      127.743     179.289       3.186
  N      126.571     179.910       5.966
  C      126.627     180.475       7.162
  N      127.802     181.147       7.358
  O      123.315     183.715       7.780
  O      123.106     182.419       9.988
  H      129.412     183.341       6.597
  H      123.140     182.821       7.419
  H      129.976     180.301       2.975
  H      125.848     180.429       7.914
  H      129.205     181.543       8.812
  H      127.367     183.732       7.640
  H      131.909     181.499       3.569
  H      127.890     185.037       9.610
  H      131.978     182.268       5.119
  H      127.809     182.778      11.337
  H      125.383     182.796      11.180
  H      125.967     184.480      11.140
  P      130.292     185.346      10.490
  C      129.847     184.959      13.020
  O      129.743     185.844      11.916
  O      129.627     186.369       9.454
  O      131.778     185.319      10.349
  H      130.283     186.620       8.777
  H      129.443     185.428      13.893
  H      130.876     184.719      13.189
  H      129.301     184.063      12.811

 6  7  8  9  10  11  12  13  14  15  26  29  33  34 0
 6-311+G(2d,p)
 ****
 36  38  39  40  41 0
 6-311+G(2d,p)
 ****
 1  2  3  4  5  16  17  18  19  20  21  22  23  24  25 0
 3-21G
 ****
 27  28  30  31  32  35  37  42  43  44  45  46  47 0
 3-21G
 ****
 48  49 0
 3-21G
 ****


