%nproc=1
%NoSave
%Mem=1900MB
#P OB98/GEN NMR

erre ene a

0 1
  C      -86.927     307.984     133.544
  O      -86.752     307.192     132.363
  P      -87.567     305.838     132.076
  C      -86.396     303.775     131.039
  O      -86.880     305.097     130.829
  C      -85.273     303.444     130.053
  O      -85.766     303.497     128.694
  C      -84.098     304.409     130.062
  O      -83.276     304.253     131.203
  C      -83.413     304.056     128.742
  O      -82.534     302.932     128.893
  C      -84.606     303.673     127.845
  N      -84.867     304.647     126.801
  C      -84.085     304.553     125.645
  O      -83.172     303.730     125.577
  N      -84.350     305.407     124.602
  C      -85.241     306.340     124.742
  N      -85.471     307.143     123.668
  C      -85.989     306.559     125.992
  C      -85.758     305.685     126.970
  O      -89.038     306.038     131.919
  O      -87.244     304.881     133.318
  H      -87.978     304.251     133.444
  H      -83.100     302.150     129.056
  H      -86.693     307.374     126.081
  H      -86.277     305.762     127.919
  H      -84.435     302.692     127.387
  H      -82.813     304.884     128.354
  H      -84.475     305.438     130.012
  H      -84.928     302.421     130.261
  H      -84.946     306.958     122.823
  H      -87.225     303.074     130.881
  H      -86.157     307.884     123.665
  H      -86.053     303.677     132.072
  P      -83.676     305.097     132.508
  C      -81.460     306.187     133.303
  O      -82.396     305.141     133.471
  O      -84.701     304.135     133.278
  O      -84.292     306.427     132.220
  H      -85.420     304.667     133.665
  H      -80.966     306.372     134.261
  H      -81.939     307.112     132.968
  H      -80.707     305.883     132.572
  H      -86.276     308.832     133.505
  H      -86.694     307.395     134.406
  H      -87.942     308.317     133.603

 3  4  5  6  7  8  9  10  11  12  13  24  27  28  29  30  32 0
 6-311+G(2d,p)
 ****
 34  35 0
 6-311+G(2d,p)
 ****
 1  2  14  15  16  17  18  19  20  21  22  23  25  26 0
 3-21G
 ****
 31  33  36  37  38  39  40  41  42  43  44  45  46 0
 3-21G
 ****


