%nproc=1
%NoSave
%Mem=1900MB
#P OB98/GEN NMR

erre ene a

0 1
  C      376.075     737.470     174.246
  O      377.345     737.422     173.623
  P      377.460     737.970     172.124
  C      377.686     735.530     171.213
  O      377.003     736.779     171.149
  C      377.285     734.664     170.030
  O      375.947     734.152     170.197
  C      377.271     735.413     168.697
  O      378.585     735.569     168.167
  C      376.379     734.520     167.851
  O      377.126     733.426     167.281
  C      375.366     734.010     168.890
  N      374.067     734.671     168.782
  C      373.041     733.933     168.215
  O      373.193     732.772     167.809
  N      371.827     734.562     168.112
  C      371.564     735.857     168.444
  O      370.467     736.389     168.270
  C      372.701     736.604     169.012
  C      373.880     735.994     169.142
  O      379.032     738.076     171.881
  O      376.767     739.263     171.885
  H      376.533     732.998     166.632
  H      379.232     738.858     171.311
  H      371.070     734.026     167.728
  H      372.527     737.640     169.287
  H      374.733     736.533     169.542
  H      375.201     732.922     168.755
  H      375.932     735.060     167.010
  H      376.784     736.393     168.821
  H      377.971     733.795     169.979
  H      377.436     735.022     172.146
  H      378.763     735.723     171.204
  P      378.752     736.540     166.907
  C      379.428     734.340     165.675
  O      378.726     735.581     165.632
  O      380.277     736.992     167.075
  O      377.756     737.663     166.906
  H      380.818     736.292     167.467
  H      379.388     733.887     166.669
  H      380.469     734.501     165.393
  H      378.962     733.645     164.955
  H      376.149     737.074     175.237
  H      375.378     736.888     173.680
  H      375.738     738.485     174.292

 3  4  5  6  7  8  9  10  11  12  13  23  28  29  30  31  32 0
 6-311+G(2d,p)
 ****
 33  34 0
 6-311+G(2d,p)
 ****
 1  2  14  15  16  17  18  19  20  21  22  24  25  26 0
 3-21G
 ****
 27  35  36  37  38  39  40  41  42  43  44  45 0
 3-21G
 ****


