%nproc=1
%NoSave
%Mem=1900MB
#P OB98/GEN NMR

erre ene a

0 1
  C     -154.222     600.045     149.827
  O     -155.390     600.289     150.587
  P     -156.738     599.475     150.297
  C     -158.977     600.003     149.164
  O     -157.591     600.278     149.197
  C     -159.580     600.380     147.806
  O     -159.760     601.831     147.745
  C     -158.736     599.961     146.592
  O     -159.647     599.542     145.567
  C     -158.044     601.255     146.201
  O     -157.607     601.238     144.847
  C     -159.129     602.281     146.531
  N     -158.601     603.623     146.672
  C     -158.624     604.438     145.534
  O     -158.949     603.968     144.445
  N     -158.255     605.759     145.661
  C     -157.736     606.167     146.781
  N     -157.444     607.497     146.885
  C     -157.463     605.273     147.916
  C     -157.957     604.031     147.821
  O     -157.519     599.092     151.517
  O     -156.254     598.167     149.499
  H     -156.596     597.370     149.955
  H     -157.086     600.429     144.690
  H     -156.917     605.631     148.776
  H     -157.833     603.307     148.614
  H     -159.903     602.278     145.747
  H     -157.161     601.414     146.828
  H     -158.047     599.140     146.828
  H     -160.575     599.933     147.742
  H     -157.681     608.089     146.099
  H     -159.454     600.590     149.943
  H     -157.338     607.957     147.791
  H     -159.155     598.940     149.375
  P     -159.227     598.284     144.653
  C     -157.777     597.966     142.517
  O     -158.107     598.789     143.608
  O     -160.518     598.143     143.701
  O     -158.971     596.997     145.360
  H     -160.569     597.215     143.385
  H     -156.954     598.417     141.971
  H     -158.632     597.859     141.845
  H     -157.451     596.973     142.869
  H     -153.434     600.683     150.169
  H     -154.420     600.245     148.795
  H     -153.929     599.022     149.942

 3  4  5  6  7  8  9  10  11  12  13  24  27  28  29  30  32 0
 6-311+G(2d,p)
 ****
 34  35 0
 6-311+G(2d,p)
 ****
 1  2  14  15  16  17  18  19  20  21  22  23  25  26 0
 3-21G
 ****
 31  33  36  37  38  39  40  41  42  43  44  45  46 0
 3-21G
 ****


