%nproc=1
%NoSave
%Mem=1900MB
#P OB98/GEN NMR

erre ene a

0 1
  C      539.744     209.671     508.990
  O      539.466     208.604     508.115
  H      540.713     209.492     509.462
  H      538.977     209.718     509.768
  H      539.786     210.626     508.460
  P      538.365     208.812     506.970
  C      539.678     210.493     505.513
  O      539.127     209.180     505.605
  C      540.373     210.715     504.167
  O      541.672     210.082     504.179
  C      539.593     210.109     502.996
  O      538.603     210.964     502.444
  C      540.706     209.841     501.986
  O      540.946     210.986     501.152
  C      541.926     209.553     502.869
  N      544.107     205.491     500.660
  C      543.855     206.741     500.124
  N      544.191     206.902     498.822
  N      543.308     207.714     500.796
  C      542.927     207.369     502.048
  C      543.109     206.163     502.681
  C      543.789     205.106     501.954
  O      544.045     203.991     502.391
  N      542.560     206.165     503.941
  C      541.976     207.346     504.033
  N      542.243     208.136     502.940
  O      537.678     210.206     507.367
  O      537.335     207.729     506.860
  H      541.533     210.710     500.424
  H      536.744     210.200     507.089
  H      544.556     204.788     500.102
  H      541.395     207.693     504.880
  H      542.822     210.062     502.487
  H      540.433     209.017     501.318
  H      544.541     206.164     498.236
  H      539.151     209.154     503.281
  H      543.856     207.738     498.340
  H      540.540     211.792     504.026
  H      540.398     210.584     506.324
  H      538.899     211.240     505.671
  P      537.254     210.364     501.832
  C      535.446     211.456     503.393
  O      536.069     211.390     502.129
  O      536.931     209.136     502.801
  O      537.329     209.944     500.399
  H      537.230     208.292     502.404
  H      534.683     212.206     503.376
  H      536.174     211.705     504.137
  H      535.009     210.507     503.625

 6  7  8  9  10  11  12  13  14  15  26  29  33  34 0
 6-311+G(2d,p)
 ****
 36  38  39  40  41 0
 6-311+G(2d,p)
 ****
 1  2  3  4  5  16  17  18  19  20  21  22  23  24  25 0
 3-21G
 ****
 27  28  30  31  32  35  37  42  43  44  45  46  47 0
 3-21G
 ****
 48  49 0
 3-21G
 ****


