%nproc=1
%NoSave
%Mem=1900MB
#P OB98/GEN NMR

erre ene a

0 1
  C      134.206     267.653    -831.002
  O      133.265     268.274    -830.141
  H      134.626     268.383    -831.699
  H      135.024     267.240    -830.391
  H      133.731     266.833    -831.555
  P      131.975     268.914    -830.842
  C      132.598     271.097    -829.573
  O      131.564     270.189    -829.946
  C      132.004     272.271    -828.796
  O      131.362     273.187    -829.707
  C      130.936     271.891    -827.777
  O      131.501     271.402    -826.573
  C      130.248     273.231    -827.569
  O      131.039     274.038    -826.675
  C      130.265     273.827    -828.981
  N      125.439     275.426    -829.632
  C      126.464     275.895    -828.870
  N      127.720     275.430    -828.768
  C      127.897     274.374    -829.574
  C      126.971     273.785    -830.422
  C      125.688     274.357    -830.426
  N      124.638     273.824    -831.167
  N      127.525     272.711    -831.084
  C      128.753     272.631    -830.622
  N      129.032     273.615    -829.716
  O      130.824     267.839    -830.522
  O      132.107     269.170    -832.305
  H      130.591     274.904    -826.610
  H      130.716     267.245    -831.288
  H      126.220     276.773    -828.256
  H      129.478     271.875    -830.916
  H      130.472     274.909    -828.975
  H      129.246     273.135    -827.127
  H      130.199     271.179    -828.193
  H      132.828     272.816    -828.316
  H      133.099     271.471    -830.477
  H      123.723     274.001    -830.758
  H      124.804     272.887    -831.522
  H      133.334     270.564    -828.948
  P      130.759     270.195    -825.824
  C      130.903     271.451    -823.566
  O      131.199     270.259    -824.282
  O      131.504     268.907    -826.393
  O      129.272     270.114    -826.066
  H      130.858     268.284    -826.788
  H      131.249     271.357    -822.558
  H      129.845     271.614    -823.566
  H      131.392     272.279    -824.035

 6  7  8  9  10  11  12  13  14  15  25  28  32  33  34  35 0
 6-311+G(2d,p)
 ****
 36  39  40 0
 6-311+G(2d,p)
 ****
 1  2  3  4  5  16  17  18  19  20  21  22  23  24 0
 3-21G
 ****
 26  27  29  30  31  37  38  41  42  43  44  45  46  47  48 0
 3-21G
 ****


