%nproc=1
%NoSave
%Mem=1900MB
#P OB98/GEN NMR

erre ene a

0 1
  C      -85.066      72.683     106.850
  O      -86.256      72.503     106.102
  P      -87.512      71.850     106.865
  C      -88.105      69.448     107.679
  O      -87.305      70.261     106.827
  C      -88.616      68.230     106.913
  O      -89.688      68.613     106.028
  C      -87.577      67.558     106.023
  O      -86.667      66.788     106.791
  C      -88.483      66.746     105.102
  O      -88.921      65.552     105.771
  C      -89.670      67.703     104.895
  N      -91.536      68.334     100.167
  C      -91.830      67.445     101.142
  N      -91.274      67.327     102.366
  C      -90.324      68.258     102.548
  C      -89.901      69.214     101.640
  C      -90.553      69.237     100.398
  N      -90.247      70.143      99.404
  N      -88.885      69.980     102.173
  C      -88.707      69.502     103.387
  N      -89.563      68.472     103.667
  O      -88.720      72.092     105.849
  O      -87.792      72.426     108.220
  H      -88.129      65.001     105.931
  H      -89.556      72.249     106.329
  H      -92.620      66.735     100.908
  H      -87.979      69.871     104.100
  H      -90.633      67.181     104.875
  H      -87.989      66.441     104.174
  H      -87.029      68.309     105.441
  H      -89.013      67.512     107.644
  H      -88.963      70.026     108.037
  H      -90.657      69.997      98.494
  H      -89.424      70.720      99.525
  H      -87.507      69.145     108.544
  P      -85.128      66.798     106.333
  C      -83.865      65.689     104.388
  O      -85.090      65.771     105.096
  O      -84.437      65.957     107.505
  O      -84.557      68.149     106.075
  H      -84.913      65.129     107.690
  H      -83.960      64.925     103.615
  H      -83.054      65.411     105.067
  H      -83.643      66.649     103.913
  H      -84.316      73.123     106.227
  H      -84.722      71.735     107.207
  H      -85.261      73.327     107.682

 3  4  5  6  7  8  9  10  11  12  22  25  29  30  31  32 0
 6-311+G(2d,p)
 ****
 33  36  37 0
 6-311+G(2d,p)
 ****
 1  2  13  14  15  16  17  18  19  20  21  23  24  26 0
 3-21G
 ****
 27  28  34  35  38  39  40  41  42  43  44  45  46  47  48 0
 3-21G
 ****


