%nproc=1
%NoSave
%Mem=1900MB
#P OB98/GEN NMR

erre ene a

0 1
  C      101.599    -887.774     203.120
  O      101.158    -887.292     204.399
  P      100.159    -886.035     204.456
  C      101.349    -884.129     205.777
  O      100.405    -885.175     205.797
  C      102.150    -884.070     207.087
  O      101.296    -883.607     208.181
  C      102.745    -885.412     207.538
  O      103.980    -885.138     208.209
  C      101.711    -885.922     208.526
  O      102.218    -886.924     209.404
  C      101.325    -884.608     209.211
  N      100.051    -884.666     209.935
  C      100.084    -884.587     211.320
  O      101.124    -884.542     211.998
  N       98.866    -884.589     211.952
  C       97.639    -884.709     211.344
  O       96.588    -884.745     211.962
  C       97.685    -884.812     209.865
  C       98.868    -884.787     209.247
  O       98.750    -886.748     204.764
  O      100.061    -885.224     203.202
  H      102.417    -887.702     208.865
  H       98.059    -886.380     204.178
  H       98.867    -884.530     212.962
  H       96.735    -884.901     209.356
  H       98.901    -884.835     208.171
  H      102.129    -884.315     209.908
  H      100.873    -886.367     207.970
  H      102.917    -886.106     206.698
  H      102.946    -883.330     206.980
  H      100.843    -883.173     205.637
  H      102.046    -884.280     204.927
  P      105.363    -885.479     207.454
  C      105.981    -887.766     208.555
  O      106.232    -886.384     208.459
  O      106.086    -884.040     207.525
  O      105.198    -885.983     206.062
  H      106.023    -883.636     208.403
  H      105.795    -888.210     207.569
  H      105.135    -887.958     209.202
  H      106.871    -888.242     208.987
  H      102.254    -888.608     203.260
  H      102.120    -886.994     202.605
  H      100.752    -888.079     202.542

 3  4  5  6  7  8  9  10  11  12  13  23  28  29  30  31  32 0
 6-311+G(2d,p)
 ****
 33  34 0
 6-311+G(2d,p)
 ****
 1  2  14  15  16  17  18  19  20  21  22  24  25  26 0
 3-21G
 ****
 27  35  36  37  38  39  40  41  42  43  44  45 0
 3-21G
 ****


