%nproc=1
%NoSave
%Mem=1900MB
#P OB98/GEN NMR

erre ene a

0 1
  C     -411.786    -889.516    -339.707
  O     -411.954    -889.870    -338.344
  H     -411.449    -890.401    -340.260
  H     -411.035    -888.732    -339.810
  H     -412.741    -889.180    -340.122
  P     -412.345    -888.692    -337.332
  C     -413.081    -890.441    -335.553
  O     -412.271    -889.306    -335.846
  C     -412.330    -891.350    -334.573
  O     -411.232    -891.995    -335.255
  C     -411.706    -890.610    -333.398
  O     -412.649    -890.294    -332.383
  C     -410.676    -891.633    -332.931
  O     -411.256    -892.612    -332.056
  C     -410.224    -892.263    -334.252
  N     -408.903    -891.792    -334.656
  C     -407.822    -892.540    -334.186
  O     -407.944    -893.535    -333.480
  N     -406.577    -892.074    -334.534
  C     -406.315    -890.935    -335.234
  O     -405.181    -890.536    -335.456
  C     -407.496    -890.172    -335.689
  C     -408.711    -890.631    -335.388
  O     -413.912    -888.494    -337.586
  O     -411.587    -887.423    -337.516
  H     -414.063    -887.676    -338.087
  H     -411.822    -892.112    -331.428
  H     -405.774    -892.600    -334.207
  H     -407.324    -889.262    -336.250
  H     -409.603    -890.082    -335.698
  H     -410.165    -893.360    -334.149
  H     -409.864    -891.149    -332.386
  H     -411.186    -889.716    -333.745
  H     -413.022    -892.128    -334.223
  H     -413.271    -891.008    -336.473
  H     -414.024    -890.108    -335.129
  P     -412.706    -888.782    -331.859
  C     -415.250    -888.785    -331.169
  O     -413.869    -888.739    -330.769
  O     -413.301    -888.044    -333.142
  O     -411.365    -888.284    -331.396
  H     -413.851    -888.643    -333.678
  H     -415.874    -888.746    -330.301
  H     -415.437    -889.694    -331.702
  H     -415.466    -887.950    -331.802

 6  7  8  9  10  11  12  13  14  15  16  27  31  32  33  34  35 0
 6-311+G(2d,p)
 ****
 36  37 0
 6-311+G(2d,p)
 ****
 1  2  3  4  5  17  18  19  20  21  22  23  24  25 0
 3-21G
 ****
 26  28  29  30  38  39  40  41  42  43  44  45 0
 3-21G
 ****


