%nproc=1
%NoSave
%Mem=1900MB
#P OB98/GEN NMR

erre ene a

0 1
  C      265.327     190.047     -45.697
  O      265.271     191.312     -46.368
  P      265.798     191.504     -47.871
  C      265.202     190.648     -50.227
  O      264.777     190.775     -48.872
  C      264.173     189.889     -51.074
  O      264.022     188.536     -50.603
  C      262.776     190.497     -51.065
  O      262.711     191.614     -51.933
  C      261.928     189.302     -51.492
  O      261.969     189.141     -52.920
  C      262.652     188.139     -50.802
  N      258.974     185.350     -48.602
  C      259.351     185.491     -49.889
  N      260.339     186.257     -50.399
  C      260.986     186.909     -49.416
  C      260.711     186.866     -48.058
  C      259.648     186.042     -47.654
  N      259.255     185.914     -46.341
  N      261.570     187.688     -47.360
  C      262.363     188.203     -48.280
  N      262.050     187.762     -49.537
  O      267.228     191.124     -48.073
  O      265.575     193.059     -48.185
  H      261.631     189.965     -53.316
  H      266.228     193.357     -48.844
  H      258.783     184.910     -50.612
  H      263.176     188.892     -48.086
  H      262.674     187.245     -51.434
  H      260.878     189.404     -51.204
  H      262.501     190.792     -50.048
  H      264.562     189.836     -52.099
  H      266.156     190.110     -50.241
  H      258.460     185.328     -46.137
  H      259.721     186.462     -45.634
  H      265.356     191.651     -50.639
  P      262.167     193.020     -51.392
  C      263.609     194.389     -49.772
  O      263.445     193.943     -51.105
  O      261.176     192.944     -50.281
  O      261.527     193.703     -52.694
  H      260.797     194.291     -52.422
  H      262.952     195.244     -49.590
  H      264.648     194.704     -49.633
  H      263.382     193.591     -49.061
  H      264.925     190.148     -44.711
  H      266.344     189.720     -45.636
  H      264.754     189.328     -46.244

 3  4  5  6  7  8  9  10  11  12  22  25  29  30  31  32 0
 6-311+G(2d,p)
 ****
 33  36  37 0
 6-311+G(2d,p)
 ****
 1  2  13  14  15  16  17  18  19  20  21  23  24  26 0
 3-21G
 ****
 27  28  34  35  38  39  40  41  42  43  44  45  46  47  48 0
 3-21G
 ****


