%nproc=1
%NoSave
%Mem=1900MB
#P OB98/GEN NMR

erre ene a

0 1
  C       31.997     -62.829     -86.784
  O       31.076     -62.049     -86.051
  H       31.685     -63.875     -86.731
  H       32.998     -62.741     -86.355
  H       32.010     -62.520     -87.832
  P       31.337     -60.474     -85.914
  C       28.953     -59.495     -85.774
  O       30.121     -59.876     -85.055
  C       27.935     -60.642     -85.774
  O       27.498     -60.844     -84.408
  C       26.702     -60.334     -86.636
  O       26.421     -61.355     -87.589
  C       25.631     -60.003     -85.603
  O       24.308     -60.237     -86.039
  C       26.059     -60.823     -84.382
  N       25.575     -60.287     -83.112
  C       24.375     -60.793     -82.620
  O       23.699     -61.662     -83.163
  N       23.951     -60.257     -81.430
  C       24.583     -59.284     -80.714
  O       24.154     -58.847     -79.653
  C       25.830     -58.770     -81.300
  C       26.262     -59.285     -82.453
  O       31.613     -59.752     -87.190
  O       32.574     -60.373     -84.902
  H       24.125     -59.600     -86.761
  H       33.383     -60.145     -85.400
  H       23.091     -60.626     -81.055
  H       26.351     -57.988     -80.764
  H       27.179     -58.930     -82.912
  H       25.701     -61.850     -84.464
  H       25.705     -58.937     -85.358
  H       26.876     -59.449     -87.260
  H       28.438     -61.560     -86.100
  H       29.252     -59.254     -86.798
  H       28.510     -58.607     -85.312
  P       26.864     -61.328     -89.121
  C       27.228     -63.907     -89.479
  O       26.489     -62.733     -89.785
  O       28.230     -60.797     -89.395
  O       25.807     -60.319     -89.804
  H       26.285     -59.873     -90.532
  H       26.822     -64.735     -90.021
  H       27.166     -64.104     -88.429
  H       28.252     -63.766     -89.756

 6  7  8  9  10  11  12  13  14  15  16  26  31  32  33  34  35 0
 6-311+G(2d,p)
 ****
 36  37 0
 6-311+G(2d,p)
 ****
 1  2  3  4  5  17  18  19  20  21  22  23  24  25 0
 3-21G
 ****
 27  28  29  30  38  39  40  41  42  43  44  45 0
 3-21G
 ****


