%nproc=1
%NoSave
%Mem=1900MB
#P OB98/GEN NMR

erre ene a

0 1
  C      130.892     216.308     159.795
  O      132.067     217.097     159.815
  H      130.278     216.613     158.941
  H      130.307     216.453     160.708
  H      131.146     215.251     159.684
  P      133.059     216.946     161.067
  C      132.856     217.509     163.585
  O      132.360     217.741     162.269
  C      132.684     218.764     164.437
  O      133.567     219.805     163.976
  C      131.279     219.349     164.366
  O      130.375     218.586     165.146
  C      131.533     220.761     164.855
  O      131.625     220.813     166.284
  C      132.900     221.074     164.202
  N      132.775     221.829     162.959
  C      132.412     223.171     163.091
  O      132.223     223.661     164.208
  N      132.254     223.922     161.953
  C      132.452     223.385     160.789
  N      132.275     224.186     159.700
  C      132.849     221.978     160.604
  C      132.989     221.262     161.721
  O      134.495     217.310     160.839
  O      132.891     215.412     161.498
  H      131.604     221.764     166.518
  H      133.531     214.850     161.021
  H      133.010     221.576     159.617
  H      133.279     220.216     161.676
  H      133.536     221.644     164.890
  H      130.737     221.438     164.548
  H      130.944     219.404     163.327
  H      132.961     218.521     165.473
  H      131.994     225.144     159.872
  H      133.918     217.257     163.491
  H      132.486     223.905     158.755
  H      132.339     216.662     164.050
  P      128.854     218.394     164.672
  C      126.812     219.945     164.404
  O      128.181     219.849     164.786
  O      128.112     217.288     165.350
  O      128.991     218.188     163.087
  H      129.345     217.288     162.868
  H      126.479     220.955     164.522
  H      126.223     219.300     165.022
  H      126.706     219.652     163.380

 6  7  8  9  10  11  12  13  14  15  16  26  30  31  32  33  35 0
 6-311+G(2d,p)
 ****
 37  38 0
 6-311+G(2d,p)
 ****
 1  2  3  4  5  17  18  19  20  21  22  23  24  25 0
 3-21G
 ****
 27  28  29  34  36  39  40  41  42  43  44  45  46 0
 3-21G
 ****


