%nproc=1
%NoSave
%Mem=1900MB
#P OB98/GEN NMR

erre ene a

0 1
  C      -14.200    -233.289     421.285
  O      -15.404    -232.547     421.342
  H      -13.834    -233.274     420.253
  H      -14.380    -234.318     421.581
  H      -13.440    -232.835     421.928
  P      -16.067    -232.354     422.790
  C      -16.850    -230.016     421.976
  O      -17.205    -231.235     422.629
  C      -18.029    -229.050     421.943
  O      -19.083    -229.624     421.103
  C      -18.641    -228.756     423.322
  O      -19.081    -227.393     423.327
  C      -19.877    -229.652     423.347
  O      -20.854    -229.209     424.281
  C      -20.301    -229.556     421.882
  N      -25.191    -230.648     421.321
  C      -24.572    -229.460     421.651
  N      -25.364    -228.389     421.877
  N      -23.267    -229.327     421.759
  C      -22.583    -230.472     421.483
  C      -23.073    -231.705     421.154
  C      -24.520    -231.845     421.055
  O      -25.129    -232.874     420.788
  N      -22.057    -232.613     420.975
  C      -20.966    -231.928     421.204
  N      -21.224    -230.611     421.519
  O      -14.911    -231.610     423.603
  O      -16.512    -233.614     423.469
  H      -20.957    -228.236     424.165
  H      -14.364    -232.258     424.091
  H      -26.196    -230.694     421.266
  H      -19.953    -232.317     421.146
  H      -20.800    -228.609     421.652
  H      -19.585    -230.678     423.610
  H      -26.372    -228.407     421.764
  H      -17.964    -228.932     424.163
  H      -24.924    -227.502     422.080
  H      -17.710    -228.120     421.450
  H      -16.539    -230.245     420.943
  H      -16.002    -229.562     422.503
  P      -18.196    -226.311     424.114
  C      -17.901    -225.012     421.882
  O      -18.201    -224.942     423.269
  O      -16.699    -226.860     423.892
  O      -18.517    -226.177     425.566
  H      -16.132    -226.583     424.638
  H      -17.943    -224.030     421.458
  H      -18.615    -225.642     421.394
  H      -16.919    -225.416     421.749

 6  7  8  9  10  11  12  13  14  15  26  29  33  34 0
 6-311+G(2d,p)
 ****
 36  38  39  40  41 0
 6-311+G(2d,p)
 ****
 1  2  3  4  5  16  17  18  19  20  21  22  23  24  25 0
 3-21G
 ****
 27  28  30  31  32  35  37  42  43  44  45  46  47 0
 3-21G
 ****
 48  49 0
 3-21G
 ****


