%nproc=1
%NoSave
%Mem=1900MB
#P OB98/GEN NMR

erre ene a

0 1
  C      519.499     962.283    -610.448
  O      520.142     961.046    -610.248
  H      518.692     962.150    -611.177
  H      520.209     963.014    -610.845
  H      519.073     962.656    -609.513
  P      521.352     961.013    -609.186
  C      520.500     958.791    -608.127
  O      520.785     960.167    -607.936
  C      520.375     958.093    -606.771
  O      521.615     958.199    -606.056
  C      519.255     958.681    -605.882
  O      518.531     957.607    -605.262
  C      520.004     959.483    -604.845
  O      519.273     959.625    -603.639
  C      521.338     958.722    -604.737
  N      522.426     959.578    -604.281
  C      522.338     960.030    -602.931
  O      521.378     959.699    -602.221
  N      523.310     960.884    -602.464
  C      524.248     961.276    -603.249
  N      525.165     962.136    -602.724
  C      524.355     960.880    -604.669
  C      523.418     960.031    -605.112
  O      521.402     962.511    -608.646
  O      522.655     960.515    -609.725
  H      519.162     958.741    -603.245
  H      522.229     962.690    -608.145
  H      525.149     961.265    -605.305
  H      523.398     959.683    -606.132
  H      521.234     957.877    -604.049
  H      520.195     960.500    -605.250
  H      518.559     959.296    -606.431
  H      520.208     957.003    -606.946
  H      525.061     962.391    -601.743
  H      521.318     958.327    -608.693
  H      525.932     962.547    -603.258
  H      519.564     958.680    -608.693
  P      516.971     957.512    -605.638
  C      516.820     954.992    -606.273
  O      516.812     956.334    -606.737
  O      516.719     958.849    -606.479
  O      516.084     957.392    -604.460
  H      516.298     959.518    -605.917
  H      516.707     954.327    -607.103
  H      516.012     954.847    -605.587
  H      517.747     954.791    -605.779

 6  7  8  9  10  11  12  13  14  15  16  26  30  31  32  33  35 0
 6-311+G(2d,p)
 ****
 37  38 0
 6-311+G(2d,p)
 ****
 1  2  3  4  5  17  18  19  20  21  22  23  24  25 0
 3-21G
 ****
 27  28  29  34  36  39  40  41  42  43  44  45  46 0
 3-21G
 ****


