%nproc=1
%NoSave
%Mem=1900MB
#P OB98/GEN NMR

erre ene a

0 1
  C      128.815    -341.200     -36.656
  O      130.223    -341.267     -36.748
  P      130.934    -341.328     -38.184
  C      130.900    -343.038     -40.146
  O      130.679    -342.796     -38.772
  C      129.878    -344.036     -40.700
  O      128.563    -343.438     -40.597
  C      130.057    -344.385     -42.176
  O      129.347    -345.595     -42.451
  C      129.369    -343.225     -42.853
  O      129.003    -343.527     -44.202
  C      128.181    -342.924     -41.897
  N      127.895    -341.483     -41.820
  C      127.501    -340.860     -42.993
  O      127.308    -341.471     -44.046
  N      127.409    -339.495     -42.946
  C      127.722    -338.719     -41.872
  O      127.935    -337.517     -41.933
  C      127.905    -339.447     -40.601
  C      128.008    -340.775     -40.637
  O      132.490    -341.328     -37.810
  O      130.584    -340.206     -39.100
  H      128.715    -342.674     -44.609
  H      132.854    -340.426     -37.867
  H      127.263    -339.036     -43.837
  H      128.007    -338.865     -39.690
  H      128.195    -341.337     -39.721
  H      127.270    -343.439     -42.222
  H      130.052    -342.367     -42.885
  H      131.104    -344.481     -42.490
  H      129.883    -344.943     -40.087
  H      131.921    -343.411     -40.285
  H      130.831    -342.102     -40.711
  P      130.195    -346.877     -42.914
  C      131.235    -347.685     -45.117
  O      130.549    -346.642     -44.465
  O      129.611    -348.204     -42.580
  O      131.611    -346.653     -42.193
  H      132.103    -347.495     -42.159
  H      130.971    -347.673     -46.181
  H      130.979    -348.668     -44.696
  H      132.314    -347.529     -45.023
  H      128.526    -341.166     -35.626
  H      128.386    -342.064     -37.119
  H      128.467    -340.319     -37.153

 3  4  5  6  7  8  9  10  11  12  13  23  28  29  30  31  32 0
 6-311+G(2d,p)
 ****
 33  34 0
 6-311+G(2d,p)
 ****
 1  2  14  15  16  17  18  19  20  21  22  24  25  26  27 0
 3-21G
 ****
 35  36  37  38  39  40  41  42  43  44  45 0
 3-21G
 ****


