%nproc=1
%NoSave
%Mem=1900MB
#P OB98/GEN NMR

erre ene a

0 1
  C     -281.337     450.863    -271.796
  O     -281.061     449.693    -272.548
  P     -281.602     449.604    -274.053
  C     -283.472     448.237    -275.250
  O     -282.973     448.764    -274.029
  C     -284.435     447.081    -274.980
  O     -283.682     445.918    -274.516
  C     -285.497     447.382    -273.918
  O     -286.695     446.685    -274.279
  C     -284.909     446.758    -272.666
  O     -285.869     446.520    -271.651
  C     -284.285     445.505    -273.269
  N     -283.301     444.870    -272.384
  C     -283.686     444.623    -271.071
  O     -284.795     444.900    -270.607
  N     -282.720     444.090    -270.255
  C     -281.423     443.878    -270.591
  O     -280.573     443.514    -269.775
  C     -281.066     444.156    -271.990
  C     -282.001     444.627    -272.815
  O     -280.565     448.613    -274.767
  O     -281.700     450.920    -274.768
  H     -286.263     447.377    -271.417
  H     -279.917     449.119    -275.281
  H     -282.984     443.892    -269.301
  H     -280.041     443.967    -272.295
  H     -281.768     444.863    -273.843
  H     -285.060     444.773    -273.525
  H     -284.138     447.429    -272.249
  H     -285.709     448.454    -273.798
  H     -284.911     446.797    -275.928
  H     -282.636     447.876    -275.851
  H     -283.969     449.034    -275.820
  P     -288.079     447.138    -273.592
  C     -288.359     448.202    -271.219
  O     -287.826     447.161    -272.014
  O     -288.974     445.829    -273.824
  O     -288.671     448.375    -274.200
  H     -288.481     444.999    -273.643
  H     -289.332     448.535    -271.601
  H     -287.670     449.038    -271.206
  H     -288.490     447.834    -270.199
  H     -280.911     450.768    -270.819
  H     -282.396     450.992    -271.713
  H     -280.912     451.712    -272.289

 3  4  5  6  7  8  9  10  11  12  13  23  28  29  30  31  32 0
 6-311+G(2d,p)
 ****
 33  34 0
 6-311+G(2d,p)
 ****
 1  2  14  15  16  17  18  19  20  21  22  24  25  26 0
 3-21G
 ****
 27  35  36  37  38  39  40  41  42  43  44  45 0
 3-21G
 ****


