%nproc=1
%NoSave
%Mem=1900MB
#P OB98/GEN NMR

erre ene a

0 1
  C      814.876      19.860       3.447
  O      814.097      18.880       4.105
  H      815.779      19.387       3.052
  H      815.167      20.641       4.155
  H      814.317      20.303       2.615
  P      812.619      19.295       4.559
  C      810.527      20.003       3.188
  O      811.695      19.204       3.246
  C      809.502      19.363       2.249
  O      810.102      19.236       0.926
  C      809.043      17.965       2.683
  O      807.660      17.820       2.349
  C      809.867      17.044       1.802
  O      809.294      15.756       1.622
  C      809.936      17.863       0.510
  N      811.027      17.444      -0.363
  C      810.720      16.546      -1.384
  O      809.587      16.150      -1.651
  N      811.788      16.097      -2.120
  C      813.098      16.431      -1.922
  O      814.012      15.976      -2.601
  C      813.359      17.373      -0.825
  C      812.331      17.827      -0.111
  O      812.749      20.872       4.811
  O      812.084      18.565       5.747
  H      813.005      21.048       5.735
  H      808.398      15.885       1.249
  H      811.586      15.446      -2.860
  H      814.392      17.653      -0.633
  H      812.492      18.509       0.721
  H      808.980      17.801      -0.032
  H      810.869      16.913       2.235
  H      809.187      17.757       3.747
  H      808.643      20.042       2.148
  H      810.782      20.998       2.811
  H      810.107      20.105       4.197
  P      806.585      18.514       3.323
  C      805.192      20.727       3.169
  O      806.226      19.911       2.631
  O      807.507      18.906       4.568
  O      805.429      17.624       3.642
  H      808.409      19.171       4.305
  H      805.095      21.615       2.579
  H      805.435      20.993       4.177
  H      804.268      20.187       3.156

 6  7  8  9  10  11  12  13  14  15  16  27  31  32  33  34  35 0
 6-311+G(2d,p)
 ****
 36  37 0
 6-311+G(2d,p)
 ****
 1  2  3  4  5  17  18  19  20  21  22  23  24  25 0
 3-21G
 ****
 26  28  29  30  38  39  40  41  42  43  44  45 0
 3-21G
 ****


