%nproc=1
%NoSave
%Mem=1900MB
#P OB98/GEN NMR

erre ene a

0 1
  C       40.981    -373.145     -66.442
  O       41.111    -371.751     -66.258
  H       41.810    -373.493     -67.066
  H       40.043    -373.373     -66.953
  H       41.021    -373.671     -65.485
  P       40.117    -371.012     -65.242
  C       38.216    -371.173     -66.974
  O       38.976    -370.318     -66.128
  C       37.316    -370.338     -67.881
  O       36.312    -369.660     -67.093
  C       38.052    -369.237     -68.633
  O       38.803    -369.757     -69.714
  C       36.894    -368.336     -69.027
  O       36.235    -368.823     -70.201
  C       35.967    -368.446     -67.795
  N       36.077    -367.280     -66.920
  C       34.888    -366.626     -66.614
  O       33.790    -366.986     -67.029
  N       35.011    -365.493     -65.855
  C       36.186    -364.894     -65.506
  O       36.252    -363.759     -65.044
  C       37.406    -365.661     -65.801
  C       37.299    -366.795     -66.495
  O       40.766    -370.124     -64.234
  O       39.335    -372.221     -64.537
  H       39.710    -372.370     -63.649
  H       36.931    -368.898     -70.887
  H       34.155    -364.989     -65.665
  H       38.354    -365.254     -65.474
  H       38.187    -367.362     -66.755
  H       34.921    -368.548     -68.111
  H       37.229    -367.318     -69.230
  H       38.708    -368.692     -67.945
  H       36.804    -371.013     -68.578
  H       37.597    -371.827     -66.349
  H       38.901    -371.789     -67.566
  P       40.262    -369.181     -70.035
  C       39.603    -367.221     -71.560
  O       40.226    -368.499     -71.484
  O       41.386    -370.139     -69.821
  O       40.403    -367.919     -69.056
  H       41.251    -367.986     -68.577
  H       39.638    -366.867     -72.569
  H       40.119    -366.534     -70.922
  H       38.583    -367.302     -71.246

 6  7  8  9  10  11  12  13  14  15  16  27  31  32  33  34  35 0
 6-311+G(2d,p)
 ****
 36  37 0
 6-311+G(2d,p)
 ****
 1  2  3  4  5  17  18  19  20  21  22  23  24  25 0
 3-21G
 ****
 26  28  29  30  38  39  40  41  42  43  44  45 0
 3-21G
 ****


