%nproc=1
%NoSave
%Mem=1900MB
#P OB98/GEN NMR

erre ene a

0 1
  C      406.102     239.390     -72.146
  O      407.031     240.439     -71.943
  H      405.747     239.430     -73.178
  H      405.246     239.510     -71.474
  H      406.581     238.423     -71.972
  P      407.626     240.585     -70.460
  C      406.028     242.424     -69.561
  O      407.339     242.099     -70.005
  C      405.726     243.899     -69.809
  O      406.482     244.732     -68.905
  C      406.049     244.375     -71.223
  O      404.987     244.080     -72.113
  C      406.228     245.869     -70.996
  O      404.950     246.538     -70.922
  C      406.938     245.906     -69.635
  N      411.052     248.838     -69.524
  C      409.715     249.179     -69.508
  N      409.421     250.500     -69.486
  N      408.740     248.307     -69.522
  C      409.173     247.025     -69.604
  C      410.471     246.559     -69.629
  C      411.538     247.538     -69.554
  O      412.743     247.296     -69.482
  N      410.508     245.190     -69.692
  C      409.236     244.831     -69.743
  N      408.390     245.911     -69.696
  O      409.212     240.560     -70.688
  O      407.206     239.528     -69.493
  H      404.543     246.551     -71.808
  H      409.628     240.071     -69.953
  H      411.759     249.554     -69.476
  H      408.877     243.810     -69.802
  H      406.650     246.788     -69.046
  H      406.775     246.338     -71.816
  H      410.096     251.202     -69.762
  H      406.996     243.947     -71.576
  H      408.440     250.746     -69.551
  H      404.665     244.062     -69.583
  H      405.958     242.213     -68.489
  H      405.299     241.798     -70.094
  P      405.358     243.567     -73.585
  C      403.741     245.364     -74.542
  O      404.171     244.008     -74.578
  O      405.169     241.979     -73.469
  O      406.736     243.910     -74.040
  H      406.048     241.546     -73.434
  H      402.953     245.507     -75.251
  H      404.562     246.005     -74.787
  H      403.385     245.599     -73.561

 6  7  8  9  10  11  12  13  14  15  26  29  33  34 0
 6-311+G(2d,p)
 ****
 36  38  39  40  41 0
 6-311+G(2d,p)
 ****
 1  2  3  4  5  16  17  18  19  20  21  22  23  24  25 0
 3-21G
 ****
 27  28  30  31  32  35  37  42  43  44  45  46  47 0
 3-21G
 ****
 48  49 0
 3-21G
 ****


