%nproc=1
%NoSave
%Mem=1900MB
#P OB98/GEN NMR

erre ene a

0 1
  C      -28.995      24.488      81.674
  O      -28.015      24.468      82.692
  H      -28.717      25.245      80.936
  H      -29.977      24.740      82.081
  H      -29.038      23.516      81.175
  P      -28.325      23.622      84.021
  C      -27.401      21.454      82.966
  O      -27.269      22.410      84.016
  C      -26.031      20.935      82.524
  O      -25.422      21.862      81.603
  C      -25.033      20.792      83.662
  O      -25.337      19.755      84.570
  C      -23.700      20.784      82.930
  O      -23.315      19.493      82.467
  C      -23.993      21.706      81.722
  N      -23.313      22.990      81.835
  C      -21.981      23.007      81.439
  O      -21.379      22.011      81.036
  N      -21.337      24.207      81.562
  C      -21.872      25.350      82.079
  O      -21.228      26.385      82.201
  C      -23.277      25.265      82.505
  C      -23.926      24.106      82.366
  O      -29.748      23.184      84.197
  O      -27.791      24.560      85.201
  H      -23.265      18.911      83.251
  H      -28.159      24.279      86.073
  H      -20.374      24.241      81.270
  H      -23.733      26.152      82.923
  H      -24.964      24.017      82.676
  H      -23.656      21.230      80.792
  H      -22.891      21.149      83.567
  H      -25.054      21.718      84.249
  H      -26.175      19.982      82.002
  H      -27.886      21.953      82.121
  H      -28.034      20.626      83.300
  P      -25.091      19.866      86.144
  C      -27.588      19.548      86.788
  O      -26.257      19.053      86.894
  O      -24.703      21.210      86.671
  O      -23.821      18.888      86.335
  H      -23.270      19.261      87.050
  H      -28.251      18.909      87.334
  H      -27.880      19.569      85.759
  H      -27.634      20.538      87.192

 6  7  8  9  10  11  12  13  14  15  16  26  31  32  33  34  35 0
 6-311+G(2d,p)
 ****
 36  37 0
 6-311+G(2d,p)
 ****
 1  2  3  4  5  17  18  19  20  21  22  23  24  25 0
 3-21G
 ****
 27  28  29  30  38  39  40  41  42  43  44  45 0
 3-21G
 ****


