%nproc=1
%NoSave
%Mem=1900MB
#P OB98/GEN NMR

erre ene a

0 1
  C     -568.411     328.337    -889.320
  O     -567.038     328.033    -889.240
  H     -568.603     329.262    -888.770
  H     -569.007     327.530    -888.870
  H     -568.715     328.474    -890.360
  P     -566.550     326.697    -889.980
  C     -564.364     327.444    -891.160
  O     -565.742     327.180    -891.290
  C     -563.793     328.046    -892.460
  O     -564.130     327.152    -893.570
  C     -564.359     329.435    -892.780
  O     -563.315     330.227    -893.370
  C     -565.404     329.142    -893.860
  O     -565.668     330.281    -894.670
  C     -564.723     327.982    -894.580
  N     -567.407     328.074    -898.850
  C     -566.498     328.976    -898.360
  N     -566.240     330.090    -899.100
  N     -565.871     328.817    -897.220
  C     -566.185     327.651    -896.590
  C     -567.080     326.692    -896.980
  C     -567.790     326.894    -898.230
  O     -568.625     326.135    -898.730
  N     -567.153     325.674    -896.070
  C     -566.302     326.027    -895.110
  N     -565.691     327.223    -895.390
  O     -567.900     326.081    -890.580
  O     -565.810     325.720    -889.120
  H     -566.420     330.048    -895.260
  H     -567.850     325.105    -890.630
  H     -567.875     328.252    -899.730
  H     -566.080     325.466    -894.190
  H     -563.935     328.314    -895.280
  H     -566.348     328.820    -893.390
  H     -566.660     330.255    -900.000
  H     -564.786     329.948    -891.920
  H     -565.570     330.751    -898.730
  H     -562.706     328.064    -892.400
  H     -563.842     326.495    -890.940
  H     -564.190     328.146    -890.330
  P     -562.164     330.769    -892.380
  C     -559.906     329.506    -892.680
  O     -561.166     329.549    -892.040
  O     -562.951     331.003    -891.010
  O     -561.491     332.013    -892.850
  H     -563.032     331.965    -890.850
  H     -559.368     328.642    -892.350
  H     -559.351     330.387    -892.435
  H     -560.046     329.456    -893.740

 6  7  8  9  10  11  12  13  14  15  26  29  33  34 0
 6-311+G(2d,p)
 ****
 36  38  39  40  41 0
 6-311+G(2d,p)
 ****
 1  2  3  4  5  16  17  18  19  20  21  22  23  24  25 0
 3-21G
 ****
 27  28  30  31  32  35  37  42  43  44  45  46  47 0
 3-21G
 ****
 48  49 0
 3-21G
 ****


