%nproc=1
%NoSave
%Mem=1900MB
#P OB98/GEN NMR

erre ene a

0 1
  C     -187.968     836.566    -164.457
  O     -188.559     835.278    -164.410
  H     -187.397     836.717    -163.538
  H     -188.745     837.331    -164.520
  H     -187.290     836.653    -165.310
  P     -189.333     834.738    -165.706
  C     -191.417     833.944    -164.406
  O     -190.306     833.560    -165.215
  C     -192.127     832.693    -163.884
  O     -192.598     831.889    -164.987
  C     -191.228     831.774    -163.059
  O     -191.031     832.293    -161.758
  C     -192.015     830.471    -163.110
  O     -193.085     830.481    -162.147
  C     -192.572     830.503    -164.557
  N     -191.789     829.677    -165.475
  C     -192.208     828.360    -165.645
  O     -193.174     827.884    -165.036
  N     -191.476     827.609    -166.519
  C     -190.320     827.996    -167.139
  O     -189.650     827.245    -167.837
  C     -189.904     829.378    -166.898
  C     -190.653     830.147    -166.097
  O     -188.474     834.396    -166.876
  O     -190.354     835.922    -166.059
  H     -193.505     829.601    -162.199
  H     -190.028     836.412    -166.836
  H     -191.767     826.645    -166.645
  H     -188.996     829.725    -167.386
  H     -190.349     831.174    -165.909
  H     -193.610     830.155    -164.571
  H     -191.397     829.601    -162.894
  H     -190.265     831.624    -163.563
  H     -193.004     833.008    -163.299
  H     -192.112     834.523    -165.017
  H     -191.061     834.564    -163.573
  P     -189.545     832.621    -161.248
  C     -189.597     832.028    -158.734
  O     -189.640     833.075    -159.713
  O     -188.748     833.524    -162.132
  O     -188.852     831.178    -161.147
  H     -188.075     831.144    -161.749
  H     -189.668     832.453    -157.754
  H     -188.675     831.493    -158.825
  H     -190.416     831.358    -158.892

 6  7  8  9  10  11  12  13  14  15  16  26  31  32  33  34  35 0
 6-311+G(2d,p)
 ****
 36  37 0
 6-311+G(2d,p)
 ****
 1  2  3  4  5  17  18  19  20  21  22  23  24  25 0
 3-21G
 ****
 27  28  29  30  38  39  40  41  42  43  44  45 0
 3-21G
 ****


