%nproc=1
%NoSave
%Mem=1900MB
#P OB98/GEN NMR

erre ene a

0 1
  C      -12.623       6.777    -426.065
  O      -12.021       7.556    -427.087
  P      -11.529       6.873    -428.452
  C      -13.909       6.662    -429.407
  O      -12.746       5.962    -428.974
  C      -14.136       6.452    -430.900
  O      -12.960       6.883    -431.621
  C      -14.399       4.997    -431.275
  O      -15.350       4.949    -432.346
  C      -13.059       4.500    -431.806
  O      -13.232       3.408    -432.723
  C      -12.489       5.780    -432.424
  N       -8.293       7.732    -434.643
  C       -9.605       7.968    -434.850
  N      -10.668       7.393    -434.239
  C      -10.261       6.536    -433.289
  C       -8.954       6.200    -432.966
  C       -7.938       6.840    -433.689
  N       -6.596       6.617    -433.465
  N       -8.933       5.257    -431.953
  C      -10.198       5.042    -431.665
  N      -11.041       5.799    -432.439
  O      -10.222       6.165    -428.369
  O      -11.493       8.070    -429.513
  H      -13.779       2.735    -432.268
  H      -10.726       7.971    -430.108
  H       -9.835       8.709    -435.608
  H      -10.556       4.347    -430.917
  H      -12.852       5.933    -433.450
  H      -12.445       4.144    -430.974
  H      -14.753       4.391    -430.432
  H      -14.974       7.085    -431.221
  H      -13.764       7.730    -429.213
  H       -5.941       7.205    -433.947
  H       -6.330       6.089    -432.643
  H      -14.776       6.321    -428.827
  P      -16.484       3.817    -432.227
  C      -18.441       5.302    -431.365
  O      -17.460       4.337    -431.067
  O      -15.903       2.453    -432.073
  O      -17.291       4.047    -433.594
  H      -17.191       4.966    -433.921
  H      -18.978       5.554    -430.446
  H      -19.157       4.900    -432.092
  H      -17.979       6.212    -431.768
  H      -12.881       7.408    -425.240
  H      -11.935       6.025    -425.738
  H      -13.507       6.310    -426.446

 3  4  5  6  7  8  9  10  11  12  22  25  29  30  31  32 0
 6-311+G(2d,p)
 ****
 33  36  37 0
 6-311+G(2d,p)
 ****
 1  2  13  14  15  16  17  18  19  20  21  23  24  26 0
 3-21G
 ****
 27  28  34  35  38  39  40  41  42  43  44  45  46  47  48 0
 3-21G
 ****


