%nproc=1
%NoSave
%Mem=1900MB
#P OB98/GEN NMR

erre ene a

0 1
  C     -352.600     -18.570    -273.521
  O     -351.347     -17.930    -273.778
  P     -351.338     -16.701    -274.807
  C     -350.472     -14.918    -273.125
  O     -350.235     -15.630    -274.326
  C     -349.234     -14.120    -272.696
  O     -348.364     -14.931    -271.851
  C     -348.380     -13.627    -273.866
  O     -347.750     -12.407    -273.480
  C     -347.318     -14.705    -273.985
  O     -346.181     -14.253    -274.717
  C     -347.080     -15.010    -272.506
  N     -343.560     -18.212    -274.189
  C     -343.928     -16.966    -274.661
  N     -343.233     -16.491    -275.716
  N     -344.888     -16.253    -274.140
  C     -345.473     -16.845    -273.070
  C     -345.207     -18.073    -272.513
  C     -344.146     -18.861    -273.112
  O     -343.788     -19.979    -272.744
  N     -346.032     -18.329    -271.444
  C     -346.798     -17.263    -271.364
  N     -346.480     -16.317    -272.299
  O     -352.724     -15.964    -274.495
  O     -351.248     -17.110    -276.241
  H     -345.474     -14.927    -274.612
  H     -353.349     -16.110    -275.226
  H     -342.812     -18.726    -274.632
  H     -347.603     -17.120    -270.654
  H     -346.410     -14.272    -272.035
  H     -347.735     -15.581    -274.501
  H     -342.442     -16.969    -276.128
  H     -348.932     -13.473    -274.800
  H     -343.453     -15.562    -276.054
  H     -349.560     -13.263    -272.090
  H     -350.749     -15.611    -272.326
  H     -351.336     -14.263    -273.267
  P     -348.522     -11.042    -273.840
  C     -348.885     -10.344    -271.358
  O     -348.277     -10.052    -272.601
  O     -350.066     -11.439    -273.699
  O     -348.208     -10.476    -275.185
  H     -350.619     -10.854    -274.251
  H     -348.133     -10.757    -270.686
  H     -349.712     -11.062    -271.468
  H     -349.280      -9.422    -270.932
  H     -352.457     -19.366    -272.821
  H     -352.993     -18.965    -274.435
  H     -353.288     -17.858    -273.115

 3  4  5  6  7  8  9  10  11  12  23  26  30  31 0
 6-311+G(2d,p)
 ****
 33  35  36  37  38 0
 6-311+G(2d,p)
 ****
 1  2  13  14  15  16  17  18  19  20  21  22  24  25 0
 3-21G
 ****
 27  28  29  32  34  39  40  41  42  43  44  45  46  47  48  49 0
 3-21G
 ****


