%nproc=1
%NoSave
%Mem=1900MB
#P OB98/GEN NMR

erre ene a

0 1
  C      -72.646     246.435    -275.371
  O      -73.946     246.592    -274.831
  P      -74.061     246.865    -273.253
  C      -75.561     248.990    -273.177
  O      -74.245     248.449    -273.095
  C      -75.518     250.510    -273.081
  O      -74.804     251.055    -274.205
  C      -76.887     251.170    -273.106
  O      -77.519     251.055    -271.851
  C      -76.524     252.600    -273.489
  O      -76.189     253.376    -272.326
  C      -75.287     252.404    -274.397
  N      -75.571     252.670    -275.798
  C      -74.618     253.442    -276.476
  O      -73.623     253.863    -275.878
  N      -74.836     253.747    -277.798
  C      -75.911     253.323    -278.385
  N      -76.074     253.652    -279.695
  C      -76.952     252.528    -277.700
  C      -76.722     252.244    -276.420
  O      -72.574     246.606    -272.730
  O      -75.069     246.020    -272.545
  H      -77.017     253.443    -271.807
  H      -72.576     246.335    -271.791
  H      -77.830     252.199    -278.238
  H      -77.430     251.668    -275.839
  H      -74.472     253.071    -274.085
  H      -77.352     253.114    -273.985
  H      -77.513     250.728    -273.894
  H      -74.974     250.785    -272.165
  H      -75.347     254.202    -280.134
  H      -76.160     248.601    -272.348
  H      -76.866     253.350    -280.246
  H      -76.017     248.670    -274.118
  P      -78.865     250.190    -271.768
  C      -78.216     248.946    -269.622
  O      -78.441     248.841    -271.012
  O      -79.035     249.687    -273.281
  O      -80.089     250.877    -271.265
  H      -79.886     249.223    -273.385
  H      -78.091     247.942    -269.207
  H      -79.067     249.427    -269.131
  H      -77.303     249.523    -269.431
  H      -72.716     246.260    -276.424
  H      -72.163     245.603    -274.903
  H      -72.077     247.323    -275.194

 3  4  5  6  7  8  9  10  11  12  13  21  23  27  28  29  30  32 0
 6-311+G(2d,p)
 ****
 34  35 0
 6-311+G(2d,p)
 ****
 1  2  14  15  16  17  18  19  20  22  24  25  26 0
 3-21G
 ****
 31  33  36  37  38  39  40  41  42  43  44  45  46 0
 3-21G
 ****


