%nproc=1
%NoSave
%Mem=1900MB
#P OB98/GEN NMR

erre ene a

0 1
  C      212.798    -519.244    -275.349
  O      214.056    -519.801    -275.676
  H      212.869    -518.769    -274.365
  H      212.033    -520.022    -275.308
  H      212.517    -518.486    -276.083
  P      214.192    -520.697    -276.998
  C      216.254    -519.510    -277.983
  O      215.745    -520.703    -277.395
  C      217.706    -519.702    -278.428
  O      218.560    -519.616    -277.255
  C      217.964    -521.056    -279.111
  O      218.912    -520.846    -280.165
  C      218.586    -521.876    -278.002
  O      219.369    -522.940    -278.511
  C      219.354    -520.821    -277.197
  N      219.582    -521.266    -275.823
  C      220.630    -522.170    -275.625
  O      221.309    -522.552    -276.582
  N      220.826    -522.690    -274.371
  C      220.026    -522.366    -273.403
  N      220.265    -522.933    -272.185
  C      218.890    -521.425    -273.571
  C      218.728    -520.917    -274.792
  O      213.264    -520.356    -278.117
  O      213.943    -522.188    -276.471
  H      219.823    -523.392    -277.772
  H      212.996    -522.411    -276.529
  H      218.247    -521.200    -272.733
  H      217.919    -520.233    -275.011
  H      220.328    -520.615    -277.669
  H      217.789    -522.313    -277.382
  H      217.054    -521.516    -279.510
  H      217.982    -518.869    -279.086
  H      221.036    -523.591    -272.129
  H      216.204    -518.716    -277.233
  H      219.683    -522.798    -271.377
  H      215.632    -519.226    -278.844
  P      218.435    -520.272    -281.595
  C      220.546    -518.847    -281.921
  O      219.738    -519.889    -282.460
  O      217.401    -519.195    -281.514
  O      217.859    -521.562    -282.352
  H      217.152    -521.283    -282.965
  H      221.380    -518.672    -282.568
  H      220.900    -519.134    -280.953
  H      219.965    -517.952    -281.837

 6  7  8  9  10  11  12  13  14  15  16  26  30  31  32  33  35 0
 6-311+G(2d,p)
 ****
 37  38 0
 6-311+G(2d,p)
 ****
 1  2  3  4  5  17  18  19  20  21  22  23  24  25 0
 3-21G
 ****
 27  28  29  34  36  39  40  41  42  43  44  45  46 0
 3-21G
 ****


