%nproc=1
%NoSave
%Mem=1900MB
#P OB98/GEN NMR

erre ene a

0 1
  C     -267.038    -669.022     203.537
  O     -267.686    -667.799     203.207
  P     -267.454    -667.118     201.782
  C     -264.905    -666.787     201.906
  O     -266.177    -666.152     201.891
  C     -263.937    -666.072     200.965
  O     -264.465    -666.022     199.627
  C     -263.666    -664.626     201.341
  O     -262.835    -664.514     202.486
  C     -263.055    -664.102     200.050
  O     -261.667    -664.454     199.963
  C     -263.875    -664.861     198.986
  N     -264.885    -664.023     198.353
  C     -264.414    -663.068     197.453
  O     -263.208    -662.907     197.293
  N     -265.329    -662.305     196.764
  C     -266.594    -662.407     197.049
  N     -267.457    -661.677     196.301
  C     -267.114    -663.297     198.114
  C     -266.213    -664.087     198.700
  O     -268.659    -666.495     201.168
  O     -266.904    -668.315     200.862
  H     -267.423    -668.341     200.038
  H     -261.211    -663.986     200.692
  H     -268.164    -663.287     198.361
  H     -266.509    -664.778     199.480
  H     -263.211    -665.257     198.206
  H     -263.118    -663.011     199.975
  H     -264.618    -664.112     201.528
  H     -263.000    -666.647     200.944
  H     -267.066    -661.102     195.570
  H     -265.029    -667.826     201.584
  H     -268.442    -661.919     196.219
  H     -264.516    -666.790     202.931
  P     -263.568    -664.255     203.889
  C     -264.365    -661.854     203.326
  O     -263.562    -662.677     204.147
  O     -262.530    -664.826     204.964
  O     -264.907    -664.913     204.027
  H     -263.012    -665.246     205.701
  H     -264.516    -660.902     203.835
  H     -265.337    -662.310     203.132
  H     -263.841    -661.672     202.379
  H     -267.316    -669.317     204.527
  H     -265.978    -668.888     203.490
  H     -267.333    -669.781     202.842

 3  4  5  6  7  8  9  10  11  12  13  24  27  28  29  30  32 0
 6-311+G(2d,p)
 ****
 34  35 0
 6-311+G(2d,p)
 ****
 1  2  14  15  16  17  18  19  20  21  22  23  25  26 0
 3-21G
 ****
 31  33  36  37  38  39  40  41  42  43  44  45  46 0
 3-21G
 ****


