%nproc=1
%NoSave
%Mem=1900MB
#P OB98/GEN NMR

erre ene a

0 1
  C      -77.174     305.436     591.719
  O      -76.471     306.425     590.993
  H      -77.972     305.040     591.085
  H      -77.621     305.868     592.620
  H      -76.499     304.621     591.990
  P      -75.272     307.162     591.762
  C      -73.760     306.639     589.744
  O      -74.288     307.654     590.591
  C      -73.342     307.233     588.396
  O      -74.534     307.469     587.603
  C      -72.596     308.565     588.523
  O      -71.559     308.622     587.540
  C      -73.659     309.603     588.201
  O      -73.101     310.816     587.701
  C      -74.530     308.848     587.193
  N      -77.310     313.085     586.569
  C      -75.991     312.840     586.418
  N      -75.331     311.671     586.588
  C      -76.192     310.686     586.912
  C      -77.557     310.789     587.109
  C      -78.117     312.064     586.929
  N      -79.459     312.328     587.111
  N      -78.081     309.562     587.476
  C      -77.053     308.734     587.490
  N      -75.884     309.374     587.168
  O      -74.623     306.380     592.856
  O      -75.968     308.529     592.221
  H      -72.570     311.228     588.415
  H      -76.508     308.910     591.502
  H      -75.380     313.690     586.123
  H      -77.100     307.677     587.729
  H      -74.135     308.912     586.172
  H      -74.229     309.836     589.105
  H      -72.172     308.715     589.519
  H      -72.743     306.490     587.853
  H      -74.511     305.856     589.577
  H      -79.785     313.268     586.947
  H      -80.083     311.575     587.361
  H      -72.896     306.194     590.245
  P      -70.406     309.724     587.713
  C      -68.610     308.202     588.776
  O      -68.981     308.985     587.645
  O      -70.579     310.682     588.841
  O      -70.456     310.491     586.303
  H      -70.290     311.442     586.455
  H      -67.648     307.766     588.608
  H      -69.332     307.426     588.925
  H      -68.572     308.826     589.645

 6  7  8  9  10  11  12  13  14  15  25  28  32  33  34  35 0
 6-311+G(2d,p)
 ****
 36  39  40 0
 6-311+G(2d,p)
 ****
 1  2  3  4  5  16  17  18  19  20  21  22  23  24 0
 3-21G
 ****
 26  27  29  30  31  37  38  41  42  43  44  45  46  47 0
 3-21G
 ****
 48 0
 3-21G
 ****


