%nproc=1
%NoSave
%Mem=1900MB
#P OB98/GEN NMR

erre ene a

0 1
  C     -436.525     522.432     517.835
  O     -437.599     522.057     516.991
  H     -436.232     523.456     517.583
  H     -435.663     521.771     517.685
  H     -436.841     522.406     518.878
  P     -438.035     520.503     516.971
  C     -440.583     520.530     516.530
  O     -439.273     520.425     515.953
  C     -441.637     519.884     515.631
  O     -441.785     520.625     514.400
  C     -441.298     518.460     515.206
  O     -441.283     517.511     516.246
  C     -442.246     518.266     514.019
  O     -443.558     517.891     514.437
  C     -442.267     519.685     513.408
  N     -441.492     519.780     512.176
  C     -442.204     519.574     510.993
  O     -443.404     519.312     510.963
  N     -441.475     519.647     509.836
  C     -440.110     519.853     509.757
  O     -439.524     519.884     508.687
  C     -439.416     520.012     511.034
  C     -440.121     519.975     512.175
  O     -438.299     519.888     518.313
  O     -436.853     519.786     516.157
  H     -443.870     518.595     515.049
  H     -436.876     518.806     516.287
  H     -441.969     519.527     508.974
  H     -438.343     520.169     511.007
  H     -439.627     520.094     513.128
  H     -443.304     519.988     513.174
  H     -441.884     517.502     513.340
  H     -440.278     518.465     514.783
  H     -442.602     519.912     516.164
  H     -440.805     521.596     516.644
  H     -440.583     520.066     517.524
  P     -440.182     516.360     516.381
  C     -440.066     516.658     518.979
  O     -440.228     515.781     517.882
  O     -438.842     516.657     515.788
  O     -440.849     515.163     515.525
  H     -440.111     514.675     515.098
  H     -440.125     516.102     519.892
  H     -440.839     517.398     518.962
  H     -439.112     517.138     518.914

 6  7  8  9  10  11  12  13  14  15  16  26  31  32  33  34  35 0
 6-311+G(2d,p)
 ****
 36  37 0
 6-311+G(2d,p)
 ****
 1  2  3  4  5  17  18  19  20  21  22  23  24  25 0
 3-21G
 ****
 27  28  29  30  38  39  40  41  42  43  44  45 0
 3-21G
 ****


