%nproc=1
%NoSave
%Mem=1900MB
#P OB98/GEN NMR

erre ene a

0 1
  C      204.751    -463.022       9.972
  O      204.502    -461.893       9.155
  H      204.993    -462.705      10.989
  H      203.848    -463.638      10.000
  H      205.572    -463.616       9.558
  P      205.723    -460.871       8.957
  C      207.977    -460.977       7.674
  O      206.892    -461.700       8.235
  C      209.238    -461.833       7.683
  O      209.726    -461.988       9.031
  C      209.054    -463.249       7.147
  O      209.061    -463.282       5.728
  C      210.283    -463.932       7.725
  O      211.439    -463.610       6.928
  C      210.397    -463.272       9.107
  N      210.369    -467.813      11.463
  C      211.141    -467.314      10.477
  N      211.104    -466.092       9.914
  C      210.155    -465.335      10.492
  C      209.301    -465.697      11.522
  C      209.429    -467.005      12.014
  N      208.581    -467.528      12.981
  N      208.446    -464.656      11.836
  C      208.765    -463.697      10.996
  N      209.796    -464.057      10.169
  O      206.264    -460.674      10.454
  O      205.365    -459.569       8.324
  H      211.508    -462.636       6.913
  H      205.884    -459.855      10.827
  H      211.893    -467.995      10.080
  H      208.281    -462.731      10.947
  H      211.439    -463.076       9.386
  H      210.198    -465.024       7.745
  H      208.158    -463.720       7.560
  H      210.012    -461.299       7.113
  H      208.153    -460.069       8.259
  H      208.456    -468.534      12.909
  H      207.752    -466.975      13.153
  H      207.716    -460.694       6.649
  P      208.235    -464.454       5.007
  C      205.706    -464.938       4.750
  O      206.727    -464.356       5.552
  O      208.810    -465.776       5.707
  O      208.386    -464.521       3.523
  H      209.155    -466.384       5.025
  H      204.758    -464.802       5.226
  H      205.899    -465.984       4.631
  H      205.694    -464.466       3.790

 6  7  8  9  10  11  12  13  14  15  25  28  32  33  34  35 0
 6-311+G(2d,p)
 ****
 36  39  40 0
 6-311+G(2d,p)
 ****
 1  2  3  4  5  16  17  18  19  20  21  22  23  24 0
 3-21G
 ****
 26  27  29  30  31  37  38  41  42  43  44  45  46  47  48 0
 3-21G
 ****


