%nproc=1
%NoSave
%Mem=1900MB
#P OB98/GEN NMR

erre ene a

0 1
  C        5.482      84.650     -40.810
  O        4.683      84.187     -41.874
  H        4.844      84.785     -39.931
  H        5.929      85.615     -41.058
  H        6.262      83.925     -40.568
  P        5.355      83.942     -43.312
  C        3.811      85.580     -44.545
  O        4.181      84.217     -44.380
  C        2.294      85.751     -44.470
  O        1.843      85.495     -43.112
  C        1.810      87.156     -44.860
  O        0.707      87.054     -45.763
  C        1.337      87.749     -43.542
  O        0.371      88.783     -43.711
  C        0.847      86.490     -42.819
  N        0.682      86.709     -41.388
  C       -0.311      87.619     -41.014
  O       -0.995      88.178     -41.872
  N       -0.472      87.913     -39.685
  C        0.323      87.383     -38.809
  N        0.130      87.739     -37.512
  C        1.404      86.440     -39.163
  C        1.524      86.147     -40.458
  O        6.049      82.630     -43.460
  O        6.327      85.194     -43.529
  H        0.077      89.081     -42.822
  H        7.017      84.952     -44.189
  H        2.043      86.030     -38.396
  H        2.289      85.465     -40.813
  H       -0.110      86.147     -43.233
  H        2.196      88.174     -43.008
  H        2.588      87.766     -45.317
  H        1.826      84.982     -45.097
  H       -0.618      88.394     -37.314
  H        4.188      85.930     -45.514
  H        0.700      87.412     -36.747
  H        4.276      86.164     -43.745
  P        0.685      88.104     -46.976
  C       -1.679      89.143     -46.729
  O       -0.835      88.267     -47.461
  O        1.390      87.303     -48.169
  O        1.399      89.378     -46.672
  H        2.266      87.690     -48.355
  H       -2.655      89.148     -47.168
  H       -1.273      90.133     -46.753
  H       -1.746      88.809     -45.715

 6  7  8  9  10  11  12  13  14  15  16  26  30  31  32  33  35 0
 6-311+G(2d,p)
 ****
 37  38 0
 6-311+G(2d,p)
 ****
 1  2  3  4  5  17  18  19  20  21  22  23  24  25 0
 3-21G
 ****
 27  28  29  34  36  39  40  41  42  43  44  45  46 0
 3-21G
 ****


