%nproc=1
%NoSave
%Mem=1900MB
#P OB98/GEN NMR

erre ene a

0 1
  C     -109.017    -102.735      83.926
  O     -107.942    -103.454      83.346
  P     -106.786    -102.673      82.561
  C     -107.883    -103.152      80.250
  O     -107.411    -102.189      81.165
  C     -107.655    -102.699      78.800
  O     -108.336    -101.430      78.621
  C     -106.198    -102.446      78.429
  O     -106.086    -102.444      77.003
  C     -105.981    -101.043      78.956
  O     -104.861    -100.405      78.350
  C     -107.353    -100.369      78.692
  N     -107.701     -99.415      79.761
  C     -106.935     -98.255      79.848
  O     -106.055     -97.975      79.040
  N     -107.160     -97.472      80.950
  C     -108.025     -97.764      81.962
  O     -107.992     -97.229      83.066
  C     -108.967     -98.862      81.696
  C     -108.752     -99.646      80.636
  O     -105.784    -103.851      82.142
  O     -106.097    -101.611      83.349
  H     -104.069    -100.955      78.560
  H     -105.055    -103.915      82.786
  H     -106.506     -96.709      81.085
  H     -109.767     -99.035      82.408
  H     -109.398    -100.498      80.442
  H     -107.354     -99.823      77.740
  H     -105.789    -101.091      80.035
  H     -105.492    -103.160      78.865
  H     -108.109    -103.425      78.115
  H     -108.947    -103.337      80.433
  H     -107.372    -104.111      80.407
  P     -104.924    -103.335      76.341
  C     -103.540    -101.177      76.166
  O     -103.554    -102.533      76.568
  O     -105.173    -103.801      74.944
  O     -104.789    -104.567      77.363
  H     -104.337    -105.310      76.924
  H     -102.835    -100.628      76.797
  H     -104.531    -100.722      76.260
  H     -103.209    -101.115      75.124
  H     -109.686    -103.419      84.405
  H     -109.541    -102.199      83.162
  H     -108.635    -102.045      84.649

 3  4  5  6  7  8  9  10  11  12  13  23  28  29  30  31  32 0
 6-311+G(2d,p)
 ****
 33  34 0
 6-311+G(2d,p)
 ****
 1  2  14  15  16  17  18  19  20  21  22  24  25  26  27 0
 3-21G
 ****
 35  36  37  38  39  40  41  42  43  44  45 0
 3-21G
 ****


