%nproc=1
%NoSave
%Mem=1900MB
#P OB98/GEN NMR

erre ene a

0 1
  C       -7.226      67.812     124.300
  O       -7.141      68.275     125.638
  P       -6.373      69.652     125.921
  C       -3.955      68.702     125.800
  O       -4.931      69.558     125.224
  C       -2.695      68.671     124.932
  O       -3.075      68.476     123.535
  C       -1.854      69.956     125.002
  O       -0.476      69.580     124.867
  C       -2.302      70.708     123.761
  O       -1.380      71.706     123.351
  C       -2.457      69.540     122.781
  N       -3.245      69.892     121.598
  C       -2.640      70.707     120.647
  O       -1.494      71.146     120.743
  N       -3.426      71.066     119.585
  C       -4.751      70.775     119.427
  O       -5.429      71.225     118.511
  C       -5.336      69.910     120.464
  C       -4.570      69.513     121.485
  O       -6.046      69.574     127.486
  O       -7.146      70.881     125.573
  H       -1.428      72.434     123.998
  H       -6.687      70.103     127.995
  H       -3.000      71.647     118.879
  H       -6.381      69.641     120.361
  H       -4.981      68.893     122.274
  H       -1.470      69.178     122.465
  H       -3.263      71.197     123.958
  H       -2.006      70.529     125.923
  H       -2.089      67.804     125.226
  H       -4.364      67.693     125.875
  H       -3.718      69.045     126.814
  P        0.638      70.586     125.442
  C        0.642      71.961     123.218
  O        0.491      71.953     124.621
  O        1.973      69.923     124.851
  O        0.635      70.697     126.932
  H        1.873      69.643     123.926
  H        0.268      71.037     122.768
  H        1.698      72.084     122.967
  H        0.083      72.805     122.804
  H       -7.765      66.888     124.276
  H       -6.241      67.661     123.912
  H       -7.737      68.538     123.703

 3  4  5  6  7  8  9  10  11  12  13  23  28  29  30  31  32 0
 6-311+G(2d,p)
 ****
 33  34 0
 6-311+G(2d,p)
 ****
 1  2  14  15  16  17  18  19  20  21  22  24  25  26 0
 3-21G
 ****
 27  35  36  37  38  39  40  41  42  43  44  45 0
 3-21G
 ****


