%nproc=1
%NoSave
%Mem=1900MB
#P OB98/GEN NMR

erre ene a

0 1
  C      909.478     245.188    -351.757
  O      909.152     245.148    -350.355
  P      907.682     245.432    -349.788
  C      907.985     247.272    -348.006
  O      907.787     245.894    -348.248
  C      908.527     247.536    -346.596
  O      907.489     247.223    -345.598
  C      909.775     246.719    -346.230
  O      910.619     247.590    -345.454
  C      909.200     245.607    -345.373
  O      910.153     244.947    -344.564
  C      908.135     246.403    -344.594
  N      907.147     245.593    -343.883
  C      907.185     245.602    -342.479
  O      908.042     246.230    -341.866
  N      906.219     244.895    -341.791
  C      905.336     244.213    -342.443
  N      904.418     243.537    -341.697
  C      905.266     244.145    -343.915
  C      906.188     244.861    -344.562
  O      906.730     244.296    -349.998
  O      907.164     246.738    -350.551
  H      906.214     246.660    -350.715
  H      909.663     244.469    -343.857
  H      904.506     243.574    -344.413
  H      906.205     244.891    -345.649
  H      908.639     247.081    -343.897
  H      908.741     244.853    -346.033
  H      910.344     246.367    -347.100
  H      908.724     248.612    -346.498
  H      904.482     243.602    -340.688
  H      907.016     247.795    -348.121
  H      903.671     242.990    -342.092
  H      908.674     247.679    -348.766
  P      912.094     247.965    -345.993
  C      913.253     246.316    -344.357
  O      913.136     247.645    -344.817
  O      912.045     249.564    -345.959
  O      912.428     247.491    -347.374
  H      912.681     249.928    -346.620
  H      914.312     246.067    -344.249
  H      912.807     245.585    -345.030
  H      912.776     246.223    -343.369
  H      910.516     244.966    -351.888
  H      909.271     246.164    -352.144
  H      908.889     244.464    -352.281

 3  4  5  6  7  8  9  10  11  12  13  24  27  28  29  30  32 0
 6-311+G(2d,p)
 ****
 34  35 0
 6-311+G(2d,p)
 ****
 1  2  14  15  16  17  18  19  20  21  22  23  25  26 0
 3-21G
 ****
 31  33  36  37  38  39  40  41  42  43  44  45  46 0
 3-21G
 ****


