%nproc=1
%NoSave
%Mem=1900MB
#P OB98/GEN NMR

erre ene a

0 1
  C     1259.642     595.951     752.488
  O     1260.191     594.776     751.926
  H     1259.553     595.812     753.570
  H     1258.649     596.122     752.071
  H     1260.282     596.816     752.300
  P     1260.849     594.854     750.466
  C     1263.355     595.052     751.027
  O     1262.193     595.727     750.575
  C     1264.264     594.620     749.865
  O     1264.695     595.794     749.132
  C     1265.520     593.902     750.347
  O     1265.370     592.506     750.529
  C     1266.499     594.190     749.203
  O     1266.407     593.206     748.157
  C     1266.036     595.558     748.687
  N     1270.761     597.546     748.817
  C     1270.361     596.294     748.386
  N     1271.343     595.456     747.979
  N     1269.108     595.904     748.375
  C     1268.246     596.805     748.904
  C     1268.540     598.073     749.378
  C     1269.903     598.521     749.307
  O     1270.318     599.632     749.660
  N     1267.408     598.687     749.891
  C     1266.478     597.774     749.795
  N     1266.910     596.646     749.146
  O     1259.859     595.841     749.670
  O     1260.983     593.544     749.746
  H     1265.460     593.072     747.953
  H     1259.849     595.594     748.718
  H     1271.720     597.806     748.770
  H     1265.448     597.874     750.141
  H     1266.024     595.603     747.594
  H     1267.530     594.171     749.563
  H     1272.317     595.678     748.036
  H     1265.915     594.357     751.259
  H     1271.108     594.474     747.847
  H     1263.681     594.001     749.170
  H     1263.022     594.170     751.584
  H     1263.917     595.691     751.735
  P     1265.719     591.805     751.911
  C     1263.470     592.202     753.227
  O     1264.844     592.490     753.057
  O     1267.195     592.348     752.226
  O     1265.640     590.316     751.938
  H     1267.855     591.674     751.972
  H     1263.086     592.769     754.049
  H     1263.346     591.158     753.426
  H     1262.938     592.461     752.335

 6  7  8  9  10  11  12  13  14  15  26  29  33  34 0
 6-311+G(2d,p)
 ****
 36  38  39  40  41 0
 6-311+G(2d,p)
 ****
 1  2  3  4  5  16  17  18  19  20  21  22  23  24  25 0
 3-21G
 ****
 27  28  30  31  32  35  37  42  43  44  45  46  47 0
 3-21G
 ****
 48  49 0
 3-21G
 ****


