%nproc=1
%NoSave
%Mem=1900MB
#P OB98/GEN NMR

erre ene a

0 1
  C     -315.245     724.357    -381.145
  O     -314.818     723.044    -380.863
  H     -314.415     724.911    -381.603
  H     -315.529     724.868    -380.217
  H     -316.089     724.356    -381.839
  P     -315.912     722.057    -380.220
  C     -316.698     721.522    -377.789
  O     -315.931     722.374    -378.641
  C     -315.918     721.233    -376.513
  O     -314.696     720.526    -376.840
  C     -315.480     722.481    -375.760
  O     -316.540     723.033    -374.985
  C     -314.342     721.927    -374.904
  O     -314.824     721.304    -373.711
  C     -313.717     720.878    -375.826
  N     -308.643     721.153    -375.360
  C     -309.590     720.555    -374.598
  N     -310.929     720.520    -374.805
  C     -311.257     721.169    -375.936
  C     -310.399     721.827    -376.813
  C     -309.031     721.796    -376.478
  N     -308.068     722.440    -377.233
  N     -311.109     722.416    -377.839
  C     -312.366     722.107    -377.600
  N     -312.502     721.355    -376.460
  O     -315.200     720.621    -380.309
  O     -317.253     722.062    -380.887
  H     -314.040     721.120    -373.159
  H     -315.489     720.162    -381.121
  H     -309.239     720.053    -373.706
  H     -313.217     722.414    -378.203
  H     -313.467     719.955    -375.295
  H     -313.651     722.727    -374.604
  H     -315.082     723.238    -376.449
  H     -316.524     720.579    -375.879
  H     -316.891     720.580    -378.315
  H     -317.656     722.013    -377.561
  H     -307.113     722.394    -376.928
  H     -308.358     723.013    -378.013
  P     -316.771     724.616    -375.027
  C     -316.127     726.648    -373.515
  O     -315.976     725.254    -373.791
  O     -318.314     724.785    -374.609
  O     -316.483     725.263    -376.346
  H     -318.859     724.922    -375.395
  H     -315.533     726.910    -372.664
  H     -317.155     726.862    -373.311
  H     -315.805     727.216    -374.363

 6  7  8  9  10  11  12  13  14  15  25  28  32  33  34  35 0
 6-311+G(2d,p)
 ****
 36  37  40 0
 6-311+G(2d,p)
 ****
 1  2  3  4  5  16  17  18  19  20  21  22  23  24 0
 3-21G
 ****
 26  27  29  30  31  38  39 41  42  43  44  45  46  47  48 0
 3-21G
 ****


