%nproc=1
%NoSave
%Mem=1900MB
#P OB98/GEN NMR

erre ene a

0 1
  C       28.675     -56.856     161.073
  O       28.214     -56.496     162.367
  P       26.998     -57.337     162.991
  C       25.248     -56.392     161.305
  O       25.655     -56.522     162.656
  C       23.789     -55.931     161.223
  O       23.460     -55.671     159.833
  C       22.762     -56.946     161.747
  O       21.679     -56.193     162.305
  C       22.301     -57.652     160.483
  O       21.032     -58.279     160.642
  C       22.318     -56.488     159.493
  N       20.495     -56.051     154.792
  C       20.051     -55.479     155.971
  N       19.009     -54.623     155.866
  N       20.579     -55.720     157.142
  C       21.623     -56.585     157.085
  C       22.131     -57.246     155.990
  C       21.563     -56.939     154.696
  O       21.977     -57.354     153.618
  N       23.134     -58.107     156.343
  C       23.289     -57.910     157.636
  N       22.428     -56.960     158.125
  O       27.186     -57.126     164.563
  O       26.942     -58.782     162.604
  H       20.792     -58.694     159.786
  H       27.704     -57.857     164.958
  H       20.062     -55.812     153.918
  H       24.004     -58.413     158.267
  H       21.418     -55.863     159.560
  H       23.028     -58.422     160.201
  H       18.574     -54.368     154.993
  H       23.172     -57.637     162.492
  H       18.682     -54.165     156.711
  H       23.697     -54.982     161.762
  H       25.330     -57.369     160.814
  H       25.909     -55.687     160.785
  P       21.336     -56.409     163.858
  C       19.444     -58.118     163.380
  O       19.810     -56.878     163.955
  O       21.296     -54.909     164.425
  O       22.328     -57.238     164.610
  H       21.596     -54.901     165.353
  H       18.526     -58.474     163.857
  H       20.230     -58.873     163.518
  H       19.259     -57.984     162.308
  H       29.482     -56.213     160.790
  H       27.876     -56.755     160.369
  H       29.014     -57.871     161.085

 3  4  5  6  7  8  9  10  11  12  23  26  30  31 0
 6-311+G(2d,p)
 ****
 33  35  36  37  38 0
 6-311+G(2d,p)
 ****
 1  2  13  14  15  16  17  18  19  20  21  22  24  25 0
 3-21G
 ****
 27  28  29  32  34  39  40  41  42  43  44  45  46  47  48  49 0
 3-21G
 ****


