%nproc=1
%NoSave
%Mem=1900MB
#P OB98/GEN NMR

erre ene a

0 1
  C      547.534     -73.652    -159.840
  O      547.136     -73.907    -158.486
  P      545.898     -74.856    -158.107
  C      546.908     -76.261    -156.192
  O      546.452     -76.247    -157.543
  C      545.768     -76.579    -155.213
  O      545.242     -77.896    -155.455
  C      546.171     -76.567    -153.742
  O      546.305     -75.242    -153.262
  C      545.015     -77.352    -153.120
  O      543.873     -76.510    -152.898
  C      544.724     -78.404    -154.210
  N      545.285     -79.715    -153.890
  C      544.825     -80.315    -152.710
  O      544.038     -79.723    -151.972
  N      545.299     -81.570    -152.383
  C      546.196     -82.131    -153.129
  N      546.625     -83.377    -152.762
  C      546.772     -81.493    -154.330
  C      546.273     -80.296    -154.647
  O      544.886     -74.996    -159.196
  O      545.233     -74.168    -156.813
  H      543.170     -77.079    -152.523
  H      544.274     -74.352    -156.812
  H      547.547     -81.986    -154.907
  H      546.628     -79.759    -155.521
  H      543.639     -78.516    -154.355
  H      545.284     -77.791    -152.148
  H      547.105     -77.117    -153.606
  H      544.953     -75.857    -155.399
  H      546.208     -83.791    -151.944
  H      547.322     -75.271    -155.958
  H      547.318     -83.898    -153.277
  H      547.709     -77.002    -156.092
  P      546.979     -74.975    -151.826
  C      549.435     -75.323    -152.498
  O      548.334     -75.828    -151.764
  O      546.067     -75.148    -150.650
  O      547.509     -73.471    -151.926
  H      547.471     -73.065    -151.038
  H      550.358     -75.725    -152.077
  H      549.463     -74.227    -152.452
  H      549.348     -75.643    -153.539
  H      548.378     -72.995    -159.846
  H      546.724     -73.197    -160.370
  H      547.797     -74.574    -160.314

 3  4  5  6  7  8  9  10  11  12  13  23  27  28  29  30  32 0
 6-311+G(2d,p)
 ****
 34  35 0
 6-311+G(2d,p)
 ****
 1  2  14  15  16  17  18  19  20  21  22  24  25  26 0
 3-21G
 ****
 31  33  36  37  38  39  40  41  42  43  44  45  46 0
 3-21G
 ****


