%nproc=1
%NoSave
%Mem=1900MB
#P OB98/GEN NMR

erre ene a

0 1
  C     -863.498     -49.814     -48.922
  O     -862.519     -48.998     -49.541
  P     -861.151     -48.740     -48.745
  C     -859.633     -49.051     -50.829
  O     -860.099     -48.159     -49.808
  C     -859.136     -48.271     -52.040
  O     -860.278     -47.808     -52.809
  C     -858.273     -47.053     -51.699
  O     -857.138     -47.007     -52.596
  C     -859.169     -45.867     -52.052
  O     -858.427     -44.705     -52.364
  C     -859.961     -46.460     -53.219
  N     -861.731     -42.202     -55.289
  C     -860.453     -42.735     -55.328
  N     -859.509     -42.002     -55.955
  N     -860.142     -43.880     -54.789
  C     -861.189     -44.521     -54.222
  C     -862.496     -44.098     -54.137
  C     -862.821     -42.800     -54.684
  O     -863.909     -42.228     -54.594
  N     -863.287     -45.041     -53.508
  C     -862.459     -46.024     -53.207
  N     -861.166     -45.737     -53.580
  O     -860.616     -50.226     -48.461
  O     -861.281     -47.966     -47.475
  H     -857.808     -44.549     -51.626
  H     -860.471     -50.347     -47.492
  H     -861.920     -41.303     -55.708
  H     -862.725     -46.941     -52.703
  H     -859.334     -46.521     -54.115
  H     -859.816     -45.654     -51.198
  H     -859.686     -41.118     -56.417
  H     -857.923     -47.018     -50.662
  H     -858.568     -42.380     -56.013
  H     -858.582     -48.968     -52.691
  H     -860.455     -49.708     -51.123
  H     -858.824     -49.665     -50.404
  P     -855.749     -46.527     -51.941
  C     -854.452     -48.563     -52.913
  O     -854.599     -47.159     -52.855
  O     -855.674     -47.383     -50.573
  O     -855.668     -45.049     -51.690
  H     -855.103     -46.927     -49.926
  H     -855.280     -49.092     -52.405
  H     -853.514     -48.846     -52.418
  H     -854.405     -48.879     -53.951
  H     -864.350     -49.897     -49.564
  H     -863.793     -49.374     -47.992
  H     -863.090     -50.787     -48.743

 3  4  5  6  7  8  9  10  11  12  23  26  30  31  33  0
 6-311+G(2d,p)
 ****
 35  36  37  38 0
 6-311+G(2d,p)
 ****
 1  2  13  14  15  16  17  18  19  20  21  22  24  25  27  28  29 0
 3-21G
 ****
 32  34  39  40  41  42  43  44  45  46  47  48  49 0
 3-21G
 ****


