%nproc=1
%NoSave
%Mem=1900MB
#P OB98/GEN NMR

erre ene a

0 1
  C      -48.343    1107.313    -591.200
  O      -48.481    1107.711    -589.849
  H      -49.232    1107.586    -591.776
  H      -47.468    1107.821    -591.622
  H      -48.180    1106.229    -591.252
  P      -49.774    1107.155    -589.070
  C      -50.731    1109.555    -588.770
  O      -50.945    1108.240    -589.292
  C      -51.981    1110.397    -588.968
  O      -52.209    1110.627    -590.368
  C      -53.270    1109.763    -588.447
  O      -53.403    1109.904    -587.033
  C      -54.319    1110.596    -589.180
  O      -54.502    1111.859    -588.493
  C      -53.643    1110.840    -590.538
  N      -57.564    1109.642    -593.623
  C      -57.432    1110.598    -592.684
  N      -56.358    1110.855    -591.885
  C      -55.351    1110.004    -592.168
  C      -55.355    1108.985    -593.104
  C      -56.520    1108.801    -593.857
  N      -56.669    1107.815    -594.813
  N      -54.144    1108.329    -593.119
  C      -53.423    1108.940    -592.202
  N      -54.112    1109.963    -591.602
  O      -49.387    1107.332    -587.525
  O      -50.146    1105.742    -589.394
  H      -55.235    1112.310    -588.937
  H      -49.764    1106.583    -587.023
  H      -58.280    1111.244    -592.538
  H      -52.396    1108.691    -591.954
  H      -53.769    1111.872    -590.882
  H      -55.289    1110.116    -589.242
  H      -53.353    1108.713    -588.765
  H      -51.810    1111.371    -588.478
  H      -49.896    1110.013    -589.290
  H      -57.446    1107.863    -595.441
  H      -55.888    1107.187    -594.977
  H      -50.484    1109.467    -587.701
  P      -54.679    1109.199    -586.337
  C      -55.348    1111.542    -585.459
  O      -55.757    1110.367    -586.152
  O      -54.164    1108.943    -584.835
  O      -55.154    1107.955    -586.988
  H      -54.662    1108.183    -584.441
  H      -56.165    1112.231    -585.412
  H      -54.529    1111.995    -585.978
  H      -55.042    1111.283    -584.467

 6  7  8  9  10  11  12  13  14  15  25  28  32  33  34  35 0
 6-311+G(2d,p)
 ****
 36  39  40 0
 6-311+G(2d,p)
 ****
 1  2  3  4  5  16  17  18  19  20  21  22  23  24 0
 3-21G
 ****
 26  27  29  30  31  37  38  41  42  43  44  45  46  47  48 0
 3-21G
 ****


