%nproc=1
%NoSave
%Mem=1900MB
#P OB98/GEN NMR

erre ene a

0 1
  C      228.454     -92.690      24.275
  O      228.433     -91.278      24.284
  H      228.021     -93.040      23.335
  H      227.853     -93.075      25.101
  H      229.475     -93.071      24.349
  P      229.266     -90.499      25.409
  C      227.177     -89.882      26.788
  O      228.406     -90.594      26.761
  C      226.680     -89.708      28.226
  O      227.713     -89.032      29.002
  C      225.396     -88.874      28.348
  O      224.674     -89.360      29.484
  C      225.951     -87.491      28.626
  O      224.967     -86.636      29.162
  C      227.125     -87.836      29.548
  N      228.091     -86.744      29.654
  C      228.043     -85.982      30.813
  O      227.220     -86.169      31.710
  N      228.947     -84.959      30.898
  C      229.832     -84.596      29.928
  O      230.599     -83.648      30.043
  C      229.808     -85.412      28.701
  C      228.954     -86.435      28.624
  O      229.708     -89.121      25.047
  O      230.507     -91.461      25.719
  H      225.194     -85.699      28.977
  H      231.281     -90.934      25.991
  H      228.933     -84.404      31.739
  H      230.493     -85.142      27.908
  H      228.913     -87.054      27.734
  H      226.766     -88.068      30.560
  H      226.315     -87.029      27.703
  H      224.772     -88.913      27.452
  H      226.549     -90.701      28.674
  H      226.443     -90.452      26.209
  H      227.313     -88.900      26.322
  P      223.291     -90.159      29.341
  C      221.806     -88.175      30.036
  O      222.121     -89.111      29.010
  O      222.989     -91.074      30.482
  O      223.440     -90.988      27.977
  H      222.896     -91.796      28.022
  H      221.017     -87.533      29.703
  H      222.672     -87.589      30.262
  H      221.492     -88.700      30.914

 6  7  8  9  10  11  12  13  14  15  16  26  31  32  33  34  35 0
 6-311+G(2d,p)
 ****
 36  37 0
 6-311+G(2d,p)
 ****
 1  2  3  4  5  17  18  19  20  21  22  23  24  25 0
 3-21G
 ****
 27  28  29  30  38  39  40  41  42  43  44  45 0
 3-21G
 ****


