%nproc=1
%NoSave
%Mem=1900MB
#P OB98/GEN NMR

erre ene a

0 1
  C     -319.152     247.500    -314.593
  O     -317.752     247.661    -314.655
  P     -317.073     249.045    -314.216
  C     -317.153     251.479    -315.055
  O     -317.488     250.121    -315.334
  C     -317.001     252.259    -316.359
  O     -318.235     252.248    -317.121
  C     -316.685     253.736    -316.167
  O     -315.444     254.065    -315.597
  C     -316.984     254.281    -317.555
  O     -315.889     254.065    -318.444
  C     -318.203     253.421    -317.970
  N     -319.455     254.180    -317.899
  C     -319.543     255.280    -318.739
  O     -318.652     255.628    -319.510
  N     -320.703     256.008    -318.651
  C     -321.734     255.769    -317.787
  O     -322.724     256.488    -317.731
  C     -321.568     254.604    -316.911
  C     -320.455     253.868    -317.004
  O     -315.609     248.976    -313.940
  O     -317.952     249.506    -312.960
  H     -315.182     254.694    -318.198
  H     -318.898     249.638    -313.149
  H     -320.784     256.815    -319.246
  H     -322.375     254.379    -316.218
  H     -320.316     253.000    -316.365
  H     -318.079     253.068    -318.997
  H     -317.169     255.364    -317.531
  H     -317.440     254.155    -315.491
  H     -316.241     251.761    -316.972
  H     -316.199     251.503    -314.512
  H     -317.920     251.918    -314.414
  P     -315.244     255.255    -314.541
  C     -315.592     257.824    -314.569
  O     -315.381     256.648    -315.319
  O     -314.110     255.115    -313.580
  O     -316.621     255.195    -313.724
  H     -316.467     255.483    -312.811
  H     -315.708     258.664    -315.260
  H     -314.739     258.024    -313.921
  H     -316.503     257.739    -313.966
  H     -319.413     246.516    -314.924
  H     -319.623     248.225    -315.224
  H     -319.482     247.636    -313.584

 3  4  5  6  7  8  9  10  11  12  13  23  28  29  30  31  32 0
 6-311+G(2d,p)
 ****
 33  34 0
 6-311+G(2d,p)
 ****
 1  2  14  15  16  17  18  19  20  21  22  24  25  26  27 0
 3-21G
 ****
 35  36  37  38  39  40  41  42  43  44  45 0
 3-21G
 ****


