%nproc=1
%NoSave
%Mem=1900MB
#P OB98/GEN NMR

erre ene a

0 1
  C       34.452     -64.568      31.027
  O       35.826     -64.854      31.312
  P       37.021     -64.151      30.503
  C       38.851     -64.250      32.302
  O       38.446     -64.699      31.012
  C       38.115     -64.957      33.448
  O       38.182     -66.402      33.296
  C       38.646     -64.639      34.853
  O       37.517     -64.719      35.731
  C       39.599     -65.795      35.104
  O       39.910     -65.988      36.476
  C       38.819     -66.943      34.472
  N       41.198     -71.115      36.254
  C       40.272     -70.301      36.811
  N       39.659     -69.233      36.261
  C       40.053     -69.056      34.987
  C       40.980     -69.808      34.284
  C       41.577     -70.878      34.977
  N       42.555     -71.680      34.431
  N       41.153     -69.306      33.008
  C       40.348     -68.262      32.951
  N       39.660     -68.071      34.122
  O       36.930     -62.659      30.449
  O       36.904     -64.757      29.023
  H       39.089     -66.225      36.945
  H       36.984     -64.032      28.374
  H       39.992     -70.535      37.835
  H       40.242     -67.601      32.101
  H       38.029     -67.306      35.142
  H       40.543     -65.606      34.576
  H       39.130     -63.662      34.927
  H       37.054     -64.685      33.374
  H       38.669     -63.171      32.367
  H       42.989     -72.359      35.038
  H       42.942     -71.442      33.531
  H       39.932     -64.411      32.404
  P       37.104     -63.499      36.683
  C       34.584     -63.926      36.581
  O       35.739     -63.921      37.401
  O       37.075     -62.163      36.017
  O       38.177     -63.537      37.875
  H       38.190     -62.673      38.326
  H       34.245     -62.898      36.414
  H       33.791     -64.486      37.085
  H       34.792     -64.400      35.615
  H       33.826     -65.141      31.678
  H       34.238     -64.824      30.010
  H       34.266     -63.525      31.179

 3  4  5  6  7  8  9  10  11  12  22  25  29  30  31  32 0
 6-311+G(2d,p)
 ****
 33  36  37 0
 6-311+G(2d,p)
 ****
 1  2  13  14  15  16  17  18  19  20  21  23  24  26 0
 3-21G
 ****
 27  28  34  35  38  39  40  41  42  43  44  45  46  47  48 0
 3-21G
 ****


