%nproc=1
%NoSave
%Mem=1900MB
#P OB98/GEN NMR

erre ene a

0 1
  C      463.281     136.719    -100.069
  O      463.341     136.304     -98.717
  P      462.488     137.138     -97.641
  C      461.991     134.845     -96.532
  O      462.343     136.210     -96.344
  C      462.739     133.935     -95.552
  O      464.141     133.893     -95.930
  C      462.654     134.384     -94.093
  O      462.573     133.208     -93.278
  C      463.996     135.054     -93.853
  O      464.349     135.045     -92.471
  C      464.914     134.224     -94.762
  N      466.135     134.939     -95.122
  C      467.218     134.839     -94.245
  O      467.086     134.223     -93.179
  N      468.396     135.467     -94.553
  C      468.453     136.231     -95.605
  N      469.639     136.839     -95.877
  C      467.294     136.475     -96.495
  C      466.190     135.787     -96.205
  O      461.013     137.133     -98.267
  O      462.994     138.529     -97.397
  H      463.765     135.678     -92.000
  H      460.537     137.960     -98.049
  H      467.389     137.152     -97.333
  H      465.296     135.884     -96.819
  H      465.200     133.287     -94.270
  H      463.952     136.100     -94.193
  H      461.794     135.028     -93.893
  H      462.339     132.916     -95.664
  H      470.413     136.667     -95.246
  H      462.253     134.545     -97.549
  H      469.777     137.448     -96.671
  H      460.905     134.737     -96.406
  P      461.432     133.153     -92.150
  C      462.397     130.805     -91.746
  O      461.885     131.983     -91.157
  O      460.230     132.445     -92.958
  O      460.978     134.438     -91.539
  H      459.434     132.406     -92.388
  H      462.783     130.158     -90.962
  H      463.195     131.048     -92.449
  H      461.587     130.271     -92.281
  H      463.893     136.077    -100.667
  H      463.635     137.725    -100.149
  H      462.269     136.669    -100.413

 3  4  5  6  7  8  9  10  11  12  13  21  23  27  28  29  30  32 0
 6-311+G(2d,p)
 ****
 34  35 0
 6-311+G(2d,p)
 ****
 1  2  14  15  16  17  18  19  20  22  24  25  26 0
 3-21G
 ****
 31  33  36  37  38  39  40  41  42  43  44  45  46 0
 3-21G
 ****


