%nproc=1
%NoSave
%Mem=1900MB
#P OB98/GEN NMR

erre ene a

0 1
  C     -278.498     455.010    -274.359
  O     -278.262     454.778    -272.990
  H     -278.679     456.079    -274.511
  H     -279.387     454.457    -274.687
  H     -277.634     454.710    -274.957
  P     -277.936     453.262    -272.561
  C     -279.029     451.545    -270.935
  O     -279.152     452.788    -271.626
  C     -280.410     451.003    -270.599
  O     -281.076     451.914    -269.693
  C     -281.337     450.863    -271.796
  O     -281.061     449.693    -272.548
  C     -282.703     450.838    -271.120
  O     -283.033     449.533    -270.642
  C     -282.503     451.792    -269.933
  N     -286.645     454.689    -269.255
  C     -286.338     453.436    -268.843
  N     -285.199     452.742    -269.055
  C     -284.320     453.474    -269.758
  C     -284.493     454.758    -270.254
  C     -285.727     455.373    -269.972
  N     -286.056     456.635    -270.425
  N     -283.388     455.157    -270.972
  C     -282.554     454.140    -270.902
  N     -283.072     453.100    -270.181
  O     -276.714     453.432    -271.536
  O     -277.596     452.343    -273.688
  H     -283.198     448.977    -271.433
  H     -275.868     453.322    -272.013
  H     -287.108     452.925    -268.272
  H     -281.572     454.096    -271.365
  H     -282.952     451.409    -269.011
  H     -283.495     451.149    -271.806
  H     -281.272     451.756    -272.438
  H     -280.292     450.040    -270.084
  H     -278.465     451.707    -270.008
  H     -278.473     450.838    -271.571
  H     -286.964     457.006    -270.207
  H     -285.414     457.108    -271.047
  P     -281.602     449.604    -274.053
  C     -283.472     448.237    -275.250
  O     -282.973     448.764    -274.029
  O     -280.565     448.613    -274.767
  O     -281.700     450.920    -274.768
  H     -279.917     449.119    -275.281
  H     -284.384     447.709    -275.064
  H     -282.751     447.567    -275.670
  H     -283.657     449.038    -275.935

 6  7  8  9  10  11  12  13  14  15  25  28  32  33  34  35 0
 6-311+G(2d,p)
 ****
 36  37  40 0
 6-311+G(2d,p)
 ****
 1  2  3  4  5  16  17  18  19  20  21  22  23  24 0
 3-21G
 ****
 26  27  29  30  31  38  39 41  42  43  44  45  46  47  48 0
 3-21G
 ****


