%nproc=1
%NoSave
%Mem=1900MB
#P OB98/GEN NMR

erre ene a

0 1
  C     1250.951    -106.163    -294.882
  O     1250.896    -106.895    -296.096
  H     1249.967    -106.143    -294.406
  H     1251.665    -106.658    -294.208
  H     1251.300    -105.145    -295.079
  P     1249.832    -106.396    -297.182
  C     1250.071    -108.683    -298.379
  O     1249.182    -107.720    -297.827
  C     1249.653    -110.086    -297.942
  O     1250.006    -110.309    -296.558
  C     1248.156    -110.366    -298.034
  O     1247.739    -110.652    -299.363
  C     1248.045    -111.592    -297.130
  O     1248.436    -112.777    -297.873
  C     1249.080    -111.296    -296.037
  N     1246.485    -112.478    -291.753
  C     1246.927    -113.232    -292.784
  N     1247.587    -112.859    -293.885
  C     1247.825    -111.530    -293.879
  C     1247.446    -110.621    -292.894
  C     1246.739    -111.140    -291.791
  N     1246.295    -110.353    -290.766
  N     1247.871    -109.350    -293.202
  C     1248.489    -109.484    -294.361
  N     1248.493    -110.786    -294.807
  O     1250.747    -105.820    -298.360
  O     1248.849    -105.375    -296.695
  H     1248.344    -113.532    -297.269
  H     1250.293    -105.050    -298.763
  H     1246.709    -114.306    -292.701
  H     1248.970    -108.676    -294.901
  H     1249.661    -112.185    -295.788
  H     1247.031    -111.764    -296.761
  H     1247.574    -109.542    -297.598
  H     1250.220    -110.804    -298.554
  H     1251.092    -108.490    -298.035
  H     1245.959    -110.803    -289.910
  H     1246.482    -109.357    -290.785
  H     1250.043    -108.602    -299.468
  P     1246.149    -110.709    -299.643
  C     1246.668    -111.268    -302.122
  O     1245.992    -111.647    -300.946
  O     1245.829    -109.241    -300.209
  O     1245.316    -111.048    -298.457
  H     1244.894    -109.028    -300.048
  H     1246.469    -111.982    -302.894
  H     1247.720    -111.231    -301.932
  H     1246.328    -110.302    -302.433

 6  7  8  9  10  11  12  13  14  15  25  28  32  33  34  35 0
 6-311+G(2d,p)
 ****
 36  39  40 0
 6-311+G(2d,p)
 ****
 1  2  3  4  5  16  17  18  19  20  21  22  23  24 0
 3-21G
 ****
 26  27  29  30  31  37  38  41  42  43  44  45  46  47  48 0
 3-21G
 ****


