%nproc=1
%NoSave
%Mem=1900MB
#P OB98/GEN NMR

erre ene a

0 1
  C     1051.113     -49.446    -551.796
  O     1050.469     -49.047    -550.595
  H     1051.482     -48.556    -552.311
  H     1050.405     -49.957    -552.449
  H     1051.965     -50.101    -551.579
  P     1049.998     -50.174    -549.563
  C     1052.042     -49.538    -548.125
  O     1051.288     -50.593    -548.704
  C     1053.112     -50.108    -547.184
  O     1052.474     -50.602    -545.976
  C     1053.928     -51.271    -547.779
  O     1055.241     -51.223    -547.198
  C     1053.142     -52.464    -547.268
  O     1053.809     -53.678    -547.441
  C     1052.882     -51.978    -545.824
  N     1051.879     -52.747    -545.089
  C     1052.266     -53.978    -544.565
  O     1053.384     -54.456    -544.678
  N     1051.290     -54.670    -543.878
  C     1050.010     -54.241    -543.674
  O     1049.196     -54.881    -543.025
  C     1049.666     -52.936    -544.247
  C     1050.590     -52.255    -544.929
  O     1049.239     -51.314    -550.153
  O     1049.109     -49.361    -548.501
  H     1048.167     -49.505    -548.686
  H     1054.089     -53.766    -548.371
  H     1051.560     -55.551    -543.495
  H     1048.644     -52.567    -544.110
  H     1050.375     -51.287    -545.351
  H     1053.824     -51.979    -545.263
  H     1052.204     -52.555    -547.819
  H     1054.015     -51.222    -548.867
  H     1053.782     -49.275    -546.867
  H     1051.361     -48.890    -547.548
  H     1052.512     -48.943    -548.912
  P     1056.589     -51.134    -548.051
  C     1057.165     -48.681    -547.379
  O     1056.831     -49.565    -548.437
  O     1056.630     -52.050    -549.229
  O     1057.781     -51.456    -547.013
  H     1058.535     -51.801    -547.506
  H     1057.295     -47.693    -547.768
  H     1058.074     -49.005    -546.917
  H     1056.378     -48.679    -546.654

 6  7  8  9  10  11  12  13  14  15  16  27  31  32  33  34  35 0
 6-311+G(2d,p)
 ****
 36  37 0
 6-311+G(2d,p)
 ****
 1  2  3  4  5  17  18  19  20  21  22  23  24  25 0
 3-21G
 ****
 26  28  29  30  38  39  40  41  42  43  44  45 0
 3-21G
 ****


