%nproc=1
%NoSave
%Mem=1900MB
#P OB98/GEN NMR

erre ene a

0 1
  C     -225.037     922.038      -1.492
  O     -225.710     921.811      -0.259
  P     -225.128     922.439       1.080
  C     -226.800     924.409       1.332
  O     -226.314     923.162       1.883
  C     -227.928     924.973       2.196
  O     -229.178     924.361       1.936
  C     -227.677     924.790       3.708
  O     -226.674     925.673       4.153
  C     -229.071     925.037       4.263
  O     -229.341     926.451       4.406
  C     -229.981     924.435       3.143
  N     -230.532     923.126       3.492
  C     -231.864     922.919       3.153
  O     -232.541     923.838       2.642
  N     -232.441     921.719       3.447
  C     -231.733     920.776       4.004
  N     -232.344     919.586       4.276
  C     -230.316     920.952       4.391
  C     -229.779     922.125       4.119
  O     -223.898     923.298       0.910
  O     -224.815     921.166       2.003
  H     -229.073     926.847       3.564
  H     -224.074     921.359       2.581
  H     -229.759     920.142       4.850
  H     -228.763     922.345       4.345
  H     -230.811     925.100       2.935
  H     -229.186     924.560       5.244
  H     -227.357     923.745       3.902
  H     -228.009     926.058       1.968
  H     -233.332     919.489       3.985
  H     -227.168     924.245       0.307
  H     -231.862     918.778       4.652
  H     -225.957     925.116       1.239
  P     -225.387     925.019       4.871
  C     -224.172     924.108       2.748
  O     -224.174     925.065       3.809
  O     -225.783     923.456       4.919
  O     -225.058     925.555       6.212
  H     -225.372     923.068       5.732
  H     -223.493     924.478       1.950
  H     -225.166     923.986       2.327
  H     -223.804     923.140       3.123
  H     -225.564     921.545      -2.282
  H     -224.041     921.651      -1.432
  H     -224.999     923.089      -1.690

 3  4  5  6  7  8  9  10  11  12  13  23  27  28  29  30  32 0
 6-311+G(2d,p)
 ****
 34  35 0
 6-311+G(2d,p)
 ****
 1  2  14  15  16  17  18  19  20  21  22  24  25  26 0
 3-21G
 ****
 31  33  36  37  38  39  40  41  42  43  44  45  46 0
 3-21G
 ****


