%nproc=1
%NoSave
%Mem=1900MB
#P OB98/GEN NMR

erre ene a

0 1
  C     -510.264    -416.154    -272.166
  O     -510.517    -416.384    -273.542
  P     -511.583    -417.526    -273.922
  C     -513.805    -417.591    -275.272
  O     -512.690    -416.821    -274.844
  C     -515.034    -416.701    -275.422
  O     -515.304    -415.991    -274.199
  C     -514.898    -415.621    -276.487
  O     -515.139    -416.115    -277.796
  C     -516.000    -414.658    -276.077
  O     -517.276    -415.143    -276.536
  C     -515.922    -414.724    -274.544
  N     -514.966    -409.764    -274.813
  C     -515.955    -410.510    -275.428
  N     -516.759    -409.842    -276.280
  N     -516.134    -411.783    -275.225
  C     -515.244    -412.319    -274.354
  C     -514.222    -411.685    -273.679
  C     -514.027    -410.271    -273.925
  O     -513.137    -409.570    -273.450
  N     -513.534    -412.553    -272.874
  C     -514.139    -413.715    -273.056
  N     -515.151    -413.632    -273.975
  O     -512.359    -417.781    -272.547
  O     -510.986    -418.779    -274.469
  H     -517.928    -414.445    -276.322
  H     -512.836    -418.630    -272.585
  H     -514.863    -408.780    -275.006
  H     -513.869    -414.635    -272.558
  H     -516.917    -414.709    -274.084
  H     -515.868    -413.656    -276.494
  H     -516.636    -408.871    -276.532
  H     -513.924    -415.111    -276.425
  H     -517.457    -410.373    -276.797
  H     -515.898    -417.346    -275.640
  H     -514.007    -418.369    -274.537
  H     -513.567    -418.070    -276.221
  P     -514.809    -415.134    -279.018
  C     -513.927    -415.489    -281.436
  O     -514.291    -416.075    -280.204
  O     -513.485    -414.377    -278.520
  O     -515.907    -414.178    -279.363
  H     -513.415    -413.504    -278.948
  H     -513.363    -416.222    -282.020
  H     -513.300    -414.607    -281.281
  H     -514.823    -415.210    -281.995
  H     -509.540    -415.373    -272.062
  H     -509.889    -417.050    -271.718
  H     -511.172    -415.865    -271.680

 3  4  5  6  7  8  9  10  11  12  23  26  30  31 0
 6-311+G(2d,p)
 ****
 33  35  36  37  38 0
 6-311+G(2d,p)
 ****
 1  2  13  14  15  16  17  18  19  20  21  22  24  25 0
 3-21G
 ****
 27  28  29  32  34  39  40  41  42  43  44  45  46  47  48  49 0
 3-21G
 ****


