%nproc=1
%NoSave
%Mem=1900MB
#P OB98/GEN NMR

erre ene a

0 1
  C      477.770     546.476     250.859
  O      478.827     545.884     250.130
  H      476.846     546.358     250.284
  H      477.961     547.546     250.995
  H      477.646     545.990     251.825
  P      480.285     545.825     250.795
  C      480.953     544.762     253.039
  O      480.287     544.572     251.796
  C      480.402     543.806     254.093
  O      478.987     544.056     254.270
  C      480.576     542.325     253.732
  O      480.875     541.602     254.925
  C      479.201     541.927     253.229
  O      478.948     540.529     253.393
  C      478.281     542.816     254.066
  N      473.303     542.032     254.395
  C      474.311     541.742     255.289
  N      473.952     541.115     256.435
  N      475.574     542.019     255.083
  C      475.786     542.653     253.901
  C      474.878     542.997     252.928
  C      473.483     542.668     253.165
  O      472.549     542.891     252.409
  N      475.492     543.608     251.862
  C      476.775     543.624     252.180
  N      477.004     543.047     253.405
  O      480.765     547.106     251.403
  O      481.240     545.349     249.602
  H      478.050     540.355     253.029
  H      481.713     546.106     249.212
  H      472.350     541.783     254.596
  H      477.561     544.032     251.573
  H      478.063     542.378     255.045
  H      479.111     542.167     252.158
  H      473.002     540.878     256.674
  H      481.356     542.156     252.985
  H      474.669     540.911     257.115
  H      480.888     544.030     255.055
  H      480.794     545.796     253.358
  H      482.026     544.595     252.904
  P      482.409     541.247     255.248
  C      484.123     542.147     256.953
  O      483.029     542.469     256.098
  O      483.224     540.792     254.088
  O      482.280     540.089     256.356
  H      483.059     539.501     256.283
  H      484.449     543.030     257.463
  H      484.929     541.754     256.369
  H      483.812     541.416     257.670

 6  7  8  9  10  11  12  13  14  15  26  29  33  34 0
 6-311+G(2d,p)
 ****
 36  38  39  40  41 0
 6-311+G(2d,p)
 ****
 1  2  3  4  5  16  17  18  19  20  21  22  23  24  25 0
 3-21G
 ****
 27  28  30  31  32  35  37  42  43  44  45  46  47 0
 3-21G
 ****
 48  49 0
 3-21G
 ****


