%nproc=1
%NoSave
%Mem=1900MB
#P OB98/GEN NMR

erre ene a

0 1
  C      564.509     185.850    -556.278
  O      563.747     186.123    -555.095
  P      564.260     185.376    -553.752
  C      562.184     183.826    -553.365
  O      563.576     183.914    -553.705
  C      561.872     182.509    -552.675
  O      560.410     182.322    -552.660
  C      562.459     181.257    -553.349
  O      562.846     180.321    -552.318
  C      561.290     180.654    -554.101
  O      561.475     179.256    -554.344
  C      560.146     180.989    -553.122
  N      555.291     179.710    -552.396
  C      556.342     179.749    -551.497
  N      556.071     179.377    -550.225
  N      557.560     180.126    -551.810
  C      557.683     180.493    -553.113
  C      556.720     180.513    -554.113
  C      555.385     180.042    -553.737
  O      554.439     179.929    -554.512
  N      557.229     180.948    -555.301
  C      558.510     181.197    -555.040
  N      558.827     180.935    -553.730
  O      563.506     186.193    -552.577
  O      565.725     185.399    -553.565
  H      562.398     179.149    -554.679
  H      564.162     186.547    -551.949
  H      554.379     179.392    -552.100
  H      559.222     181.541    -555.757
  H      560.139     180.310    -552.264
  H      561.169     181.164    -555.055
  H      555.124     179.152    -549.898
  H      563.317     181.459    -553.986
  H      556.795     179.448    -549.538
  H      562.182     182.575    -551.625
  H      561.591     183.921    -554.277
  H      561.941     184.680    -552.717
  P      564.407     180.310    -551.889
  C      565.152     178.958    -553.980
  O      565.226     180.182    -553.281
  O      564.592     178.876    -551.209
  O      564.807     181.440    -550.992
  H      565.324     178.907    -550.556
  H      564.370     178.290    -553.630
  H      566.116     178.446    -553.927
  H      564.944     179.185    -555.044
  H      564.091     186.388    -557.103
  H      564.482     184.801    -556.485
  H      565.523     186.158    -556.128

 3  4  5  6  7  8  9  10  11  12  23  26  30  31  33  0
 6-311+G(2d,p)
 ****
 35  36  37  38 0
 6-311+G(2d,p)
 ****
 1  2  13  14  15  16  17  18  19  20  21  22  24  25  27  28  29 0
 3-21G
 ****
 32  34  39  40  41  42  43  44  45  46  47  48  49 0
 3-21G
 ****


