%nproc=1
%NoSave
%Mem=1900MB
#P OB98/GEN NMR

erre ene a

0 1
  C       90.562    -553.408     460.594
  O       90.238    -552.625     461.729
  P       88.738    -552.589     462.278
  C       86.751    -550.955     461.840
  O       87.921    -551.571     461.343
  C       86.441    -549.663     461.076
  O       87.522    -548.738     461.313
  C       86.336    -549.824     459.565
  O       85.648    -548.688     459.032
  C       87.795    -549.768     459.152
  O       87.956    -549.440     457.773
  C       88.388    -548.739     460.152
  N       89.765    -549.094     460.540
  C       90.796    -548.541     459.785
  O       90.600    -547.730     458.882
  N       92.051    -549.010     460.048
  C       92.345    -550.003     460.945
  O       93.409    -550.630     460.951
  C       91.262    -550.378     461.868
  C       90.024    -549.931     461.613
  O       88.885    -551.796     463.660
  O       88.105    -553.923     462.465
  H       87.402    -550.068     457.257
  H       88.947    -552.431     464.405
  H       92.777    -548.720     459.408
  H       91.496    -551.044     462.685
  H       89.201    -550.225     462.245
  H       88.408    -547.727     459.717
  H       88.250    -550.750     459.313
  H       85.859    -550.748     459.238
  H       85.517    -549.221     461.487
  H       86.878    -550.755     462.910
  H       85.907    -551.641     461.756
  P       85.135    -548.776     457.517
  C       85.532    -547.428     455.359
  O       85.915    -547.633     456.706
  O       83.651    -548.793     457.331
  O       85.812    -550.121     456.972
  H       85.344    -550.433     456.176
  H       85.713    -546.385     455.096
  H       84.469    -547.656     455.209
  H       86.127    -548.070     454.713
  H       91.605    -553.307     460.377
  H       89.989    -553.073     459.754
  H       90.337    -554.435     460.793

 3  4  5  6  7  8  9  10  11  12  13  23  28  29  30  31  32 0
 6-311+G(2d,p)
 ****
 33  34 0
 6-311+G(2d,p)
 ****
 1  2  14  15  16  17  18  19  20  21  22  24  25  26  27 0
 3-21G
 ****
 35  36  37  38  39  40  41  42  43  44  45 0
 3-21G
 ****


