%nproc=1
%NoSave
%Mem=1900MB
#P OB98/GEN NMR

erre ene a

0 1
  C     -124.271     140.533     592.967
  O     -125.206     140.698     594.034
  P     -126.739     140.235     593.989
  C     -126.461     137.846     595.056
  O     -126.770     138.634     593.907
  C     -127.734     137.288     595.758
  O     -128.482     136.492     594.790
  C     -127.333     136.336     596.878
  O     -127.001     136.860     598.156
  C     -128.429     135.286     596.903
  O     -129.467     135.596     597.835
  C     -128.974     135.316     595.463
  N     -130.356     130.617     593.954
  C     -130.993     131.484     594.820
  N     -132.125     131.024     595.414
  N     -130.560     132.689     595.113
  C     -129.373     132.979     594.529
  C     -128.631     132.219     593.663
  C     -129.154     130.912     593.320
  O     -128.628     130.104     592.533
  N     -127.472     132.844     593.290
  C     -127.507     133.982     593.947
  N     -128.645     134.115     594.707
  O     -127.609     140.978     593.031
  O     -127.263     140.537     595.474
  H     -130.091     134.854     597.859
  H     -128.215     140.790     595.387
  H     -130.736     129.721     593.758
  H     -126.731     134.747     593.908
  H     -130.075     135.386     595.465
  H     -128.026     134.309     597.196
  H     -132.447     130.075     595.319
  H     -126.419     135.803     596.547
  H     -132.478     131.565     596.199
  H     -128.384     138.103     596.072
  H     -125.904     138.490     595.738
  H     -125.794     137.022     594.777
  P     -125.826     136.335     599.129
  C     -123.984     138.013     598.514
  O     -124.431     136.670     598.418
  O     -125.914     134.742     599.004
  O     -125.938     136.772     600.544
  H     -125.418     134.322     599.749
  H     -123.214     138.187     597.752
  H     -123.563     138.197     599.503
  H     -124.811     138.710     598.331
  H     -123.321     140.929     593.261
  H     -124.622     141.054     592.101
  H     -124.169     139.492     592.740

 3  4  5  6  7  8  9  10  11  12  23  26  30  31 0
 6-311+G(2d,p)
 ****
 33  35  36  37  38 0
 6-311+G(2d,p)
 ****
 1  2  13  14  15  16  17  18  19  20  21  22  24  25 0
 3-21G
 ****
 27  28  29  32  34  39  40  41  42  43  44  45  46  47  48  49 0
 3-21G
 ****


