%nproc=1
%NoSave
%Mem=1900MB
#P OB98/GEN NMR

erre ene a

0 1
  C      365.481     110.749    -995.619
  O      364.443     110.310    -994.759
  H      366.413     110.830    -995.065
  H      365.602     110.021    -996.423
  H      365.218     111.717    -996.055
  P      364.121     111.221    -993.486
  C      361.803     112.146    -994.201
  O      363.185     112.423    -993.993
  C      360.963     113.385    -993.893
  O      361.195     113.763    -992.518
  C      361.272     114.608    -994.787
  O      360.088     115.031    -995.460
  C      361.678     115.694    -993.801
  O      361.157     116.983    -994.140
  C      361.131     115.202    -992.462
  N      361.268     118.798    -988.855
  C      360.238     118.269    -989.561
  N      360.249     117.236    -990.431
  C      361.490     116.713    -990.523
  C      362.627     117.126    -989.855
  C      362.484     118.225    -988.988
  N      363.551     118.786    -988.305
  N      363.712     116.340    -990.210
  C      363.243     115.511    -991.113
  N      361.901     115.712    -991.360
  O      365.528     111.941    -993.184
  O      363.608     110.491    -992.294
  H      361.406     117.153    -995.067
  H      365.732     111.875    -992.231
  H      359.264     118.750    -989.422
  H      363.827     114.778    -991.668
  H      360.079     115.481    -992.318
  H      362.780     115.766    -993.787
  H      362.066     114.404    -995.509
  H      359.907     113.115    -993.989
  H      361.487     111.335    -993.539
  H      363.375     119.642    -987.804
  H      364.467     118.442    -988.484
  H      361.662     111.824    -995.238
  P      359.580     114.099    -996.678
  C      357.046     114.540    -996.259
  O      358.093     113.586    -996.298
  O      360.466     112.780    -996.517
  O      359.742     114.724    -998.023
  H      360.569     112.334    -997.370
  H      356.130     114.054    -995.995
  H      356.943     114.996    -997.221
  H      357.274     115.290    -995.531

 6  7  8  9  10  11  12  13  14  15  25  28  32  33  34  35 0
 6-311+G(2d,p)
 ****
 36  39  40 0
 6-311+G(2d,p)
 ****
 1  2  3  4  5  16  17  18  19  20  21  22  23  24 0
 3-21G
 ****
 26  27  29  30  31  37  38  41  42  43  44  45  46  47  48 0
 3-21G
 ****


