%nproc=1
%NoSave
%Mem=1900MB
#P OB98/GEN NMR

erre ene a

0 1
  C      498.463     440.037     214.901
  O      498.729     440.421     213.568
  H      497.376     440.046     215.058
  H      498.923     440.738     215.601
  H      498.831     439.028     215.085
  P      500.253     440.556     213.094
  C      500.050     443.099     212.692
  O      500.706     442.059     213.421
  C      500.785     444.432     212.896
  O      500.593     444.833     214.279
  C      502.301     444.317     212.633
  O      502.787     445.285     211.703
  C      502.900     444.318     214.040
  O      504.229     444.793     214.114
  C      501.891     445.137     214.845
  N      501.891     444.843     216.280
  C      501.722     445.924     217.149
  O      501.551     447.095     216.798
  N      501.756     445.612     218.483
  C      501.940     444.380     219.023
  O      501.953     444.160     220.229
  C      502.131     443.278     218.057
  C      502.098     443.565     216.747
  O      500.544     440.103     211.697
  O      501.075     439.697     214.172
  H      504.542     444.666     215.027
  H      501.313     438.831     213.780
  H      501.628     446.387     219.120
  H      502.302     442.287     218.448
  H      502.229     442.783     216.004
  H      502.065     446.208     214.720
  H      502.906     443.289     214.411
  H      502.541     443.365     212.149
  H      500.320     445.193     212.264
  H      499.025     443.169     213.062
  H      500.034     442.844     211.623
  P      503.304     444.955     210.234
  C      505.901     444.628     210.486
  O      504.603     444.041     210.361
  O      503.380     446.113     209.294
  O      502.180     443.941     209.666
  H      502.115     444.105     208.700
  H      506.637     443.855     210.558
  H      505.934     445.235     211.366
  H      506.103     445.233     209.627

 6  7  8  9  10  11  12  13  14  15  16  26  31  32  33  34  35 0
 6-311+G(2d,p)
 ****
 36  37 0
 6-311+G(2d,p)
 ****
 1  2  3  4  5  17  18  19  20  21  22  23  24  25 0
 3-21G
 ****
 27  28  29  30  38  39  40  41  42  43  44  45 0
 3-21G
 ****


