%nproc=1
%NoSave
%Mem=1900MB
#P OB98/GEN NMR

erre ene a

0 1
  C      116.186     303.138     223.648
  O      115.580     304.279     223.070
  H      116.062     302.296     222.962
  H      115.719     302.888     224.603
  H      117.260     303.315     223.789
  P      115.402     305.584     223.992
  C      116.573     307.143     222.294
  O      116.620     306.558     223.595
  C      117.981     307.283     221.704
  O      118.528     305.979     221.398
  C      118.024     308.044     220.384
  O      117.740     309.423     220.511
  C      119.356     307.598     219.791
  O      120.464     308.371     220.242
  C      119.475     306.149     220.324
  N      119.282     305.161     219.269
  C      120.256     305.135     218.277
  O      121.225     305.904     218.260
  N      120.074     304.222     217.276
  C      118.998     303.379     217.149
  O      118.872     302.609     216.205
  C      117.987     303.474     218.215
  C      118.168     304.341     219.212
  O      115.281     305.335     225.465
  O      114.128     306.321     223.357
  H      121.219     308.154     219.657
  H      113.755     306.989     223.986
  H      120.776     304.179     216.556
  H      117.120     302.823     218.146
  H      117.435     304.430     220.008
  H      120.470     305.988     220.761
  H      119.346     307.660     218.699
  H      117.243     307.635     219.734
  H      118.627     307.752     222.455
  H      116.124     308.139     222.387
  H      115.944     306.529     221.636
  P      116.350     310.074     220.066
  C      115.736     311.158     222.349
  O      115.410     310.184     221.365
  O      115.751     309.578     218.783
  O      116.784     311.613     219.835
  H      116.243     311.963     219.102
  H      115.025     311.111     223.147
  H      115.713     312.132     221.908
  H      116.716     310.963     222.733

 6  7  8  9  10  11  12  13  14  15  16  26  31  32  33  34  35 0
 6-311+G(2d,p)
 ****
 36  37 0
 6-311+G(2d,p)
 ****
 1  2  3  4  5  17  18  19  20  21  22  23  24  25 0
 3-21G
 ****
 27  28  29  30  38  39  40  41  42  43  44  45 0
 3-21G
 ****


