%nproc=1
%NoSave
%Mem=1900MB
#P OB98/GEN NMR

erre ene a

0 1
  C      -78.456    -239.167     174.225
  O      -78.083    -238.321     173.148
  P      -76.685    -237.534     173.176
  C      -77.726    -235.554     174.443
  O      -77.045    -235.971     173.267
  C      -78.710    -234.426     174.128
  O      -79.376    -234.030     175.352
  C      -78.046    -233.189     173.544
  O      -78.922    -232.602     172.574
  C      -77.933    -232.231     174.720
  O      -77.899    -230.864     174.280
  C      -79.167    -232.616     175.542
  N      -77.908    -229.135     179.099
  C      -78.005    -229.045     177.755
  N      -78.321    -230.018     176.869
  C      -78.603    -231.163     177.509
  C      -78.549    -231.404     178.876
  C      -78.177    -230.322     179.690
  N      -78.089    -230.406     181.063
  N      -78.876    -232.716     179.156
  C      -79.142    -233.254     177.985
  N      -79.002    -232.352     176.959
  O      -75.739    -237.889     172.082
  O      -76.074    -237.850     174.619
  H      -78.692    -230.721     173.719
  H      -75.104    -237.966     174.558
  H      -77.802    -228.065     177.334
  H      -79.425    -234.280     177.823
  H      -80.067    -232.090     175.192
  H      -77.004    -232.432     175.267
  H      -77.073    -233.398     173.085
  H      -79.481    -234.816     173.447
  H      -76.985    -235.192     175.163
  H      -77.936    -229.552     181.574
  H      -78.457    -231.240     181.513
  H      -78.250    -236.411     174.885
  P      -78.358    -232.531     171.067
  C      -78.584    -229.935     171.102
  O      -78.936    -231.157     170.483
  O      -78.656    -233.777     170.297
  O      -76.799    -232.259     171.330
  H      -76.654    -231.829     172.202
  H      -79.105    -229.119     170.584
  H      -77.509    -229.766     171.022
  H      -78.887    -229.938     172.154
  H      -79.414    -239.599     174.024
  H      -78.506    -238.594     175.128
  H      -77.730    -239.945     174.336

 3  4  5  6  7  8  9  10  11  12  22  25  29  30  31  32 0
 6-311+G(2d,p)
 ****
 33  36  37 0
 6-311+G(2d,p)
 ****
 1  2  13  14  15  16  17  18  19  20  21  23  24  26 0
 3-21G
 ****
 27  28  34  35  38  39  40  41  42  43  44  45  46  47  48 0
 3-21G
 ****


