%nproc=1
%NoSave
%Mem=1900MB
#P OB98/GEN NMR

erre ene a

0 1
  C     -394.254     168.631     -46.968
  O     -393.879     169.296     -48.161
  H     -393.426     168.653     -46.245
  H     -395.117     169.140     -46.529
  H     -394.523     167.586     -47.190
  P     -392.559     168.756     -48.893
  C     -390.047     168.577     -48.265
  O     -391.342     169.003     -47.865
  C     -388.982     169.242     -47.415
  O     -389.234     169.009     -46.002
  C     -387.560     168.748     -47.644
  O     -386.988     169.316     -48.811
  C     -386.876     169.243     -46.390
  O     -386.544     170.637     -46.527
  C     -387.963     169.075     -45.316
  N     -384.680     166.172     -42.618
  C     -384.515     167.323     -43.326
  N     -385.428     168.026     -44.028
  C     -386.634     167.453     -43.941
  C     -386.972     166.277     -43.284
  C     -385.920     165.623     -42.594
  N     -386.108     164.438     -41.904
  N     -388.309     165.997     -43.415
  C     -388.786     166.980     -44.144
  N     -387.808     167.881     -44.509
  O     -392.304     169.845     -50.046
  O     -392.656     167.377     -49.451
  H     -385.826     170.696     -47.197
  H     -391.938     169.396     -50.826
  H     -383.508     167.719     -43.320
  H     -389.827     167.081     -44.441
  H     -388.014     169.942     -44.651
  H     -385.950     168.715     -46.157
  H     -387.532     167.648     -47.665
  H     -389.037     170.339     -47.578
  H     -389.875     168.846     -49.317
  H     -385.377     164.133     -41.277
  H     -387.041     164.039     -41.871
  H     -389.990     167.481     -48.162
  P     -385.511     168.814     -49.234
  C     -383.109     169.553     -48.591
  O     -384.500     169.638     -48.289
  O     -385.301     169.476     -50.671
  O     -385.330     167.321     -49.265
  H     -384.657     168.957     -51.186
  H     -382.555     170.143     -47.891
  H     -382.936     169.919     -49.581
  H     -382.792     168.533     -48.527

 6  7  8  9  10  11  12  13  14  15  25  28  32  33  34  35 0
 6-311+G(2d,p)
 ****
 36  39  40 0
 6-311+G(2d,p)
 ****
 1  2  3  4  5  16  17  18  19  20  21  22  23  24 0
 3-21G
 ****
 26  27  29  30  31  37  38  41  42  43  44  45  46  47  48 0
 3-21G
 ****


