%nproc=1
%NoSave
%Mem=1900MB
#P OB98/GEN NMR

erre ene a

0 1
  C     -104.719     -55.570       4.324
  O     -104.874     -55.195       2.970
  P     -103.803     -54.233       2.263
  C     -105.147     -54.317       0.064
  O     -104.610     -53.487       1.091
  C     -105.979     -53.493      -0.919
  O     -107.332     -53.350      -0.444
  C     -105.461     -52.078      -1.138
  O     -104.337     -52.084      -1.995
  C     -106.698     -51.401      -1.716
  O     -106.819     -51.654      -3.124
  C     -107.839     -52.091      -0.939
  N     -108.363     -51.259       0.136
  C     -109.269     -50.264      -0.248
  O     -109.557     -50.107      -1.436
  N     -109.788     -49.437       0.720
  C     -109.414     -49.578       1.953
  N     -109.957     -48.722       2.863
  C     -108.439     -50.595       2.395
  C     -107.957     -51.391       1.443
  O     -102.530     -54.891       1.848
  O     -103.592     -53.069       3.345
  H     -106.018     -51.276      -3.539
  H     -103.048     -53.382       4.110
  H     -108.151     -50.669       3.433
  H     -107.234     -52.163       1.678
  H     -108.668     -52.339      -1.615
  H     -106.669     -50.316      -1.587
  H     -105.212     -51.622      -0.173
  H     -106.011     -54.036      -1.874
  H     -110.598     -48.021       2.516
  H     -105.785     -55.073       0.531
  H     -109.708     -48.722       3.841
  H     -104.330     -54.828      -0.454
  P     -103.240     -50.924      -1.881
  C     -102.521     -51.164      -4.331
  O     -103.036     -50.297      -3.341
  O     -101.984     -51.296      -1.164
  O     -104.012     -49.759      -1.094
  H     -103.421     -49.391      -0.412
  H     -102.738     -50.743      -5.316
  H     -102.974     -52.158      -4.261
  H     -101.436     -51.249      -4.214
  H     -105.527     -56.209       4.612
  H     -104.720     -54.694       4.939
  H     -103.792     -56.090       4.446

 3  4  5  6  7  8  9  10  11  12  13  23  27  28  29  30  32 0
 6-311+G(2d,p)
 ****
 34  35 0
 6-311+G(2d,p)
 ****
 1  2  14  15  16  17  18  19  20  21  22  24  25  26 0
 3-21G
 ****
 31  33  36  37  38  39  40  41  42  43  44  45  46 0
 3-21G
 ****


