%nproc=1
%NoSave
%Mem=1900MB
#P OB98/GEN NMR

erre ene a

0 1
  C      480.526     223.654     -37.019
  O      481.646     223.175     -37.741
  H      480.840     223.952     -36.017
  H      480.122     224.530     -37.536
  H      479.747     222.889     -36.956
  P      482.214     221.730     -37.342
  C      480.605     220.379     -38.868
  O      481.943     220.772     -38.606
  C      480.505     219.662     -40.214
  O      480.659     220.646     -41.273
  C      481.571     218.573     -40.424
  O      480.965     217.478     -41.117
  C      482.575     219.244     -41.352
  O      483.314     218.310     -42.132
  C      481.660     220.149     -42.177
  N      485.327     221.183     -45.553
  C      484.584     220.077     -45.336
  N      483.583     219.899     -44.445
  C      483.334     221.042     -43.779
  C      484.002     222.254     -43.898
  C      485.056     222.294     -44.823
  N      485.863     223.400     -45.001
  N      483.482     223.171     -43.004
  C      482.542     222.520     -42.344
  N      482.417     221.229     -42.780
  O      481.148     221.229     -36.254
  O      483.607     221.712     -36.812
  H      483.941     218.797     -42.697
  H      481.414     221.540     -35.370
  H      484.832     219.216     -45.950
  H      481.952     222.921     -41.532
  H      481.154     219.609     -42.992
  H      483.278     219.833     -40.759
  H      482.035     218.217     -39.499
  H      479.499     219.241     -40.315
  H      479.967     221.274     -38.895
  H      486.662     223.298     -45.603
  H      485.746     224.190     -44.389
  H      480.255     219.725     -38.059
  P      481.271     215.998     -40.571
  C      478.797     215.298     -40.137
  O      480.002     215.072     -40.872
  O      481.233     216.179     -38.985
  O      482.583     215.443     -41.037
  H      481.862     215.572     -38.559
  H      478.050     214.601     -40.454
  H      478.453     216.295     -40.314
  H      478.987     215.167     -39.092

 6  7  8  9  10  11  12  13  14  15  25  28  32  33  34  35 0
 6-311+G(2d,p)
 ****
 36  39  40 0
 6-311+G(2d,p)
 ****
 1  2  3  4  5  16  17  18  19  20  21  22  23  24 0
 3-21G
 ****
 26  27  29  30  31  37  38  41  42  43  44  45  46  47 0
 3-21G
 ****
 48 0
 3-21G
 ****


