%nproc=1
%NoSave
%Mem=1900MB
#P OB98/GEN NMR

erre ene a

0 1
  C     -187.639     144.989      75.301
  O     -187.973     146.126      76.074
  H     -187.051     144.308      75.916
  H     -187.045     145.285      74.432
  H     -188.548     144.476      74.970
  P     -188.862     147.250      75.351
  C     -187.228     149.159      76.028
  O     -187.861     148.445      74.973
  C     -185.773     149.429      75.663
  O     -185.059     148.176      75.542
  C     -185.590     150.132      74.326
  O     -185.843     151.523      74.408
  C     -184.142     149.795      74.012
  O     -183.239     150.695      74.674
  C     -183.995     148.382      74.585
  N     -181.310     144.804      72.121
  C     -181.003     145.597      73.170
  N     -181.783     146.520      73.776
  C     -183.000     146.558      73.211
  C     -183.457     145.807      72.139
  C     -182.551     144.886      71.587
  N     -182.851     144.096      70.503
  N     -184.753     146.155      71.820
  C     -185.080     147.094      72.683
  N     -184.054     147.366      73.548
  O     -189.732     147.850      76.555
  O     -189.721     146.759      74.235
  H     -183.466     151.591      74.354
  H     -190.627     147.458      76.536
  H     -179.999     145.487      73.568
  H     -186.033     147.607      72.725
  H     -183.046     148.244      75.117
  H     -183.950     149.862      72.942
  H     -186.230     149.667      73.566
  H     -185.311     150.007      76.475
  H     -187.272     148.560      76.943
  H     -187.767     150.097      76.192
  H     -182.130     143.511      70.114
  H     -183.734     144.234      70.025
  P     -187.174     152.079      73.705
  C     -185.780     153.814      72.343
  O     -186.733     152.756      72.321
  O     -187.596     153.324      74.617
  O     -188.273     151.080      73.583
  H     -188.571     153.387      74.668
  H     -185.598     154.151      71.344
  H     -184.866     153.462      72.773
  H     -186.160     154.624      72.929

 6  7  8  9  10  11  12  13  14  15  25  28  32  33  34  35 0
 6-311+G(2d,p)
 ****
 36  37  40 0
 6-311+G(2d,p)
 ****
 1  2  3  4  5  16  17  18  19  20  21  22  23  24 0
 3-21G
 ****
 26  27  29  30  31  38  39 41  42  43  44  45  46  47  48 0
 3-21G
 ****


