%nproc=1
%NoSave
%Mem=1900MB
#P OB98/GEN NMR

erre ene a

0 1
  C       -2.383     200.429    -508.505
  O       -2.494     200.857    -507.165
  H       -3.388     200.282    -508.909
  H       -1.847     199.476    -508.542
  H       -1.863     201.167    -509.123
  P       -1.240     201.574    -506.481
  C        1.231     201.015    -505.970
  O        0.023     200.586    -506.590
  C        2.141     199.836    -505.633
  O        2.782     199.355    -506.834
  C        3.259     200.214    -504.656
  O        2.899     200.126    -503.288
  C        4.344     199.201    -505.008
  O        4.187     197.986    -504.256
  C        4.115     198.943    -506.498
  N        8.798     198.962    -508.555
  C        8.285     198.130    -507.575
  N        9.144     197.221    -507.060
  N        7.053     198.208    -507.142
  C        6.347     199.227    -507.680
  C        6.754     200.125    -508.644
  C        8.098     199.990    -509.173
  O        8.589     200.681    -510.056
  N        5.780     201.051    -508.917
  C        4.817     200.766    -508.058
  N        5.089     199.617    -507.345
  O       -1.586     201.514    -504.914
  O       -0.988     202.987    -506.914
  H        4.929     197.391    -504.484
  H       -1.206     202.293    -504.464
  H        9.743     198.838    -508.872
  H        3.896     201.321    -507.944
  H        4.185     197.873    -506.735
  H        5.335     199.594    -504.767
  H       10.120     197.178    -507.296
  H        3.642     201.215    -504.877
  H        8.863     196.725    -506.210
  H        1.531     199.006    -505.242
  H        0.939     201.536    -505.053
  H        1.752     201.734    -506.604
  P        3.839     200.740    -502.150
  C        6.301     200.340    -501.328
  O        5.227     199.958    -502.159
  O        3.143     200.243    -500.794
  O        3.998     202.226    -502.186
  H        2.586     200.947    -500.415
  H        7.130     199.684    -501.493
  H        5.998     200.281    -500.304
  H        6.589     201.345    -501.557

 6  7  8  9  10  11  12  13  14  15  26  29  33  34 0
 6-311+G(2d,p)
 ****
 36  38  39  40  41 0
 6-311+G(2d,p)
 ****
 1  2  3  4  5  16  17  18  19  20  21  22  23  24  25 0
 3-21G
 ****
 27  28  30  31  32  35  37  42  43  44  45  46  47 0
 3-21G
 ****
 48  49 0
 3-21G
 ****


