%nproc=1
%NoSave
%Mem=1900MB
#P OB98/GEN NMR

erre ene a

0 1
  C        4.268     -78.490     138.326
  O        3.380     -79.580     138.472
  H        5.291     -78.875     138.309
  H        4.170     -77.795     139.165
  H        4.077     -77.967     137.385
  P        1.813     -79.268     138.641
  C        1.783     -79.608     141.209
  O        1.383     -80.109     139.943
  C        0.664     -79.802     142.231
  O        1.068     -79.340     143.538
  C       -0.622     -79.037     141.929
  O       -1.381     -79.603     140.871
  C       -1.322     -79.155     143.276
  O       -1.865     -80.479     143.421
  C       -0.136     -78.936     144.251
  N       -0.020     -77.549     144.704
  C       -0.613     -77.241     145.934
  O       -1.194     -78.110     146.583
  N       -0.565     -75.945     146.388
  C        0.008     -75.030     145.666
  N       -0.013     -73.753     146.137
  C        0.661     -75.313     144.371
  C        0.602     -76.576     143.952
  O        0.962     -79.482     137.431
  O        1.763     -77.767     139.198
  H       -2.249     -80.534     144.313
  H        0.812     -77.522     139.308
  H        1.115     -74.513     143.804
  H        1.047     -76.860     143.001
  H       -0.227     -79.586     145.125
  H       -2.146     -78.448     143.397
  H       -0.411     -77.980     141.737
  H        0.480     -80.883     142.317
  H       -0.505     -73.589     147.006
  H        2.028     -78.546     141.094
  H        0.154     -72.961     145.525
  H        2.669     -80.143     141.564
  P       -1.543     -78.747     139.523
  C       -3.828     -77.926     140.475
  O       -3.110     -78.432     139.363
  O       -1.255     -79.824     138.379
  O       -0.667     -77.538     139.412
  H       -0.315     -79.806     138.106
  H       -4.850     -77.773     140.200
  H       -3.398     -76.996     140.784
  H       -3.777     -78.627     141.281

 6  7  8  9  10  11  12  13  14  15  16  26  30  31  32  33  35 0
 6-311+G(2d,p)
 ****
 37  38 0
 6-311+G(2d,p)
 ****
 1  2  3  4  5  17  18  19  20  21  22  23  24  25 0
 3-21G
 ****
 27  28  29  34  36  39  40  41  42  43  44  45  46 0
 3-21G
 ****


