%nproc=1
%NoSave
%Mem=1900MB
#P OB98/GEN NMR

erre ene a

0 1
  C      -36.779     111.094    -302.465
  O      -38.097     111.000    -301.953
  P      -39.306     110.931    -303.007
  C      -40.355     113.260    -302.510
  O      -39.629     112.448    -303.423
  C      -40.390     114.705    -303.003
  O      -39.050     115.199    -303.227
  C      -41.114     114.895    -304.325
  O      -42.524     114.955    -304.165
  C      -40.574     116.246    -304.764
  O      -41.270     117.305    -304.074
  C      -39.115     116.175    -304.297
  N      -36.722     117.763    -308.462
  C      -37.421     118.487    -307.517
  N      -37.550     119.811    -307.744
  N      -37.944     117.959    -306.442
  C      -37.744     116.622    -306.350
  C      -37.067     115.797    -307.221
  C      -36.502     116.392    -308.414
  O      -35.917     115.797    -309.313
  N      -37.065     114.500    -306.785
  C      -37.738     114.532    -305.649
  N      -38.206     115.789    -305.365
  O      -40.563     110.524    -302.106
  O      -39.091     109.982    -304.142
  H      -42.221     117.092    -304.124
  H      -41.285     110.189    -302.673
  H      -36.343     118.217    -309.279
  H      -37.922     113.677    -305.014
  H      -38.769     117.127    -303.889
  H      -40.700     116.431    -305.835
  H      -37.225     120.266    -308.587
  H      -40.822     114.132    -305.058
  H      -38.113     120.354    -307.103
  H      -40.847     115.320    -302.218
  H      -39.874     113.218    -301.529
  H      -41.373     112.870    -302.412
  P      -43.412     114.596    -305.455
  C      -44.146     117.034    -305.969
  O      -43.389     115.912    -306.369
  O      -44.901     114.564    -304.867
  O      -43.040     113.315    -306.126
  H      -45.465     113.980    -305.408
  H      -43.809     117.903    -306.541
  H      -44.010     117.244    -304.903
  H      -45.203     116.860    -306.181
  H      -36.083     111.131    -301.653
  H      -36.688     111.982    -303.054
  H      -36.571     110.239    -303.074

 3  4  5  6  7  8  9  10  11  12  23  26  30  31 0
 6-311+G(2d,p)
 ****
 33  35  36  37  38 0
 6-311+G(2d,p)
 ****
 1  2  13  14  15  16  17  18  19  20  21  22  24  25 0
 3-21G
 ****
 27  28  29  32  34  39  40  41  42  43  44  45  46  47  48  49 0
 3-21G
 ****


