%nproc=1
%NoSave
%Mem=1900MB
#P OB98/GEN NMR

erre ene a

0 1
  C     -222.374     101.613     -44.478
  O     -222.461     100.644     -45.515
  P     -223.896     100.415     -46.196
  C     -224.522      98.014     -45.438
  O     -224.682      99.413     -45.223
  C     -225.876      97.315     -45.438
  O     -226.538      97.536     -44.180
  C     -226.846      97.809     -46.501
  O     -226.583      97.229     -47.770
  C     -228.172      97.320     -45.939
  O     -228.358      95.933     -46.275
  C     -227.966      97.480     -44.423
  N     -231.576      99.294     -41.365
  C     -231.242      97.988     -41.663
  N     -231.954      97.025     -41.035
  N     -230.296      97.653     -42.503
  C     -229.642      98.716     -43.022
  C     -229.882     100.055     -42.807
  C     -230.964     100.414     -41.918
  O     -231.351     101.555     -41.666
  N     -228.997     100.840     -43.506
  C     -228.203      99.981     -44.110
  N     -228.572      98.678     -43.873
  O     -223.552      99.504     -47.465
  O     -224.616     101.662     -46.586
  H     -228.250      95.856     -47.242
  H     -224.234      99.622     -48.156
  H     -232.300      99.495     -40.700
  H     -227.358     100.253     -44.724
  H     -228.352      96.614     -43.875
  H     -229.033      97.864     -46.341
  H     -232.601      97.220     -40.287
  H     -226.849      98.904     -46.552
  H     -231.698      96.063     -41.213
  H     -225.702      96.236     -45.544
  H     -223.903      97.594     -44.638
  H     -224.009      97.862     -46.395
  P     -226.552      98.231     -49.027
  C     -229.147      98.168     -49.154
  O     -227.979      98.958     -49.020
  O     -226.625      97.246     -50.285
  O     -225.356      99.123     -49.072
  H     -226.215      97.665     -51.065
  H     -229.041      97.206     -48.642
  H     -229.350      97.996     -50.216
  H     -229.990      98.706     -48.714
  H     -221.368     101.661     -44.118
  H     -223.027     101.337     -43.676
  H     -222.662     102.570     -44.859

 3  4  5  6  7  8  9  10  11  12  23  26  30  31  33  0
 6-311+G(2d,p)
 ****
 35  36  37  38 0
 6-311+G(2d,p)
 ****
 1  2  13  14  15  16  17  18  19  20  21  22  24  25  27  28  29 0
 3-21G
 ****
 32  34  39  40  41  42  43  44  45  46  47  48  49 0
 3-21G
 ****


