%nproc=1
%NoSave
%Mem=1900MB
#P OB98/GEN NMR

erre ene a

0 1
  C      145.868    -100.785      34.058
  O      144.809    -100.243      33.290
  H      145.978    -100.193      34.972
  H      146.802    -100.735      33.490
  H      145.653    -101.821      34.329
  P      144.334    -101.104      32.024
  C      146.243    -100.005      30.602
  O      145.581    -101.193      31.011
  C      146.866    -100.199      29.223
  O      147.449     -98.970      28.745
  C      148.029    -101.181      29.195
  O      147.609    -102.524      29.331
  C      148.627    -100.869      27.831
  O      147.958    -101.577      26.781
  C      148.386     -99.345      27.705
  N      149.627     -98.594      27.782
  C      150.317     -98.450      26.571
  O      149.851     -98.930      25.536
  N      151.525     -97.806      26.575
  C      152.019     -97.365      27.693
  N      153.239     -96.763      27.633
  C      151.325     -97.498      28.991
  C      150.144     -98.116      28.965
  O      143.331    -100.102      31.284
  O      143.738    -102.429      32.360
  H      148.300    -101.209      25.938
  H      143.692     -99.211      31.155
  H      151.772     -97.104      29.891
  H      149.568     -98.257      29.870
  H      147.901     -99.110      26.747
  H      149.682    -101.152      27.779
  H      148.768    -100.913      29.962
  H      146.072    -100.504      28.528
  H      153.702     -96.746      26.730
  H      147.012     -99.723      31.329
  H      153.751     -96.455      28.445
  H      145.502     -99.201      30.577
  P      148.574    -103.738      28.937
  C      147.072    -104.307      26.920
  O      148.389    -103.982      27.357
  O      148.427    -104.968      29.767
  O      150.033    -103.080      29.000
  H      150.170    -102.324      28.400
  H      147.072    -104.446      25.859
  H      146.405    -103.511      27.176
  H      146.750    -105.209      27.397

 6  7  8  9  10  11  12  13  14  15  16  26  30  31  32  33  35 0
 6-311+G(2d,p)
 ****
 37  38 0
 6-311+G(2d,p)
 ****
 1  2  3  4  5  17  18  19  20  21  22  23  24  25 0
 3-21G
 ****
 27  28  29  34  36  39  40  41  42  43  44  45  46 0
 3-21G
 ****


