%nproc=1
%NoSave
%Mem=1900MB
#P OB98/GEN NMR

erre ene a

0 1
  C      198.913    -135.072      83.663
  O      198.917    -136.475      83.365
  P      198.824    -136.900      81.822
  C      199.112    -139.115      80.470
  O      198.861    -138.502      81.731
  C      199.867    -140.432      80.661
  O      201.219    -140.191      81.101
  C      199.251    -141.327      81.725
  O      198.112    -141.991      81.218
  C      200.416    -142.259      82.064
  O      200.409    -143.433      81.229
  C      201.659    -141.384      81.783
  N      202.401    -141.062      82.993
  C      203.623    -141.721      83.152
  O      204.009    -142.534      82.309
  N      204.372    -141.456      84.273
  C      203.915    -140.627      85.172
  N      204.699    -140.410      86.264
  C      202.614    -139.933      85.049
  C      201.920    -140.197      83.948
  O      200.247    -136.464      81.233
  O      197.694    -136.253      81.084
  H      199.578    -143.892      81.430
  H      200.156    -136.190      80.303
  H      202.273    -139.262      85.830
  H      200.950    -139.734      83.783
  H      202.340    -141.905      81.098
  H      200.350    -142.616      83.103
  H      198.986    -140.734      82.614
  H      199.900    -140.961      79.697
  H      205.580    -140.900      86.314
  H      199.690    -138.440      79.832
  H      204.440    -139.791      87.025
  H      198.147    -139.281      79.961
  P      196.683    -141.575      81.796
  C      194.296    -141.486      80.840
  O      195.640    -141.880      80.612
  O      196.757    -139.971      81.766
  O      196.311    -142.087      83.153
  H      195.967    -139.586      82.193
  H      193.746    -141.559      79.888
  H      194.259    -140.459      81.193
  H      193.828    -142.152      81.569
  H      198.979    -134.932      84.722
  H      198.007    -134.633      83.301
  H      199.750    -134.604      83.188

 3  4  5  6  7  8  9  10  11  12  13  21  23  27  28  29  30  32 0
 6-311+G(2d,p)
 ****
 34  35 0
 6-311+G(2d,p)
 ****
 1  2  14  15  16  17  18  19  20  22  24  25  26 0
 3-21G
 ****
 31  33  36  37  38  39  40  41  42  43  44  45  46 0
 3-21G
 ****


