%nproc=1
%NoSave
%Mem=1900MB
#P OB98/GEN NMR

erre ene a

0 1
  C     -123.205     163.641      60.046
  O     -122.418     162.488      59.812
  H     -122.591     164.524      59.847
  H     -123.526     163.669      61.090
  H     -124.074     163.660      59.384
  P     -123.113     161.047      59.892
  C     -124.022     160.499      57.539
  O     -122.942     160.354      58.452
  C     -123.582     160.140      56.116
  O     -123.082     161.336      55.468
  C     -122.474     159.082      56.062
  O     -122.696     158.228      54.939
  C     -121.215     159.901      55.844
  O     -120.187     159.153      55.196
  C     -121.741     161.068      55.011
  N     -117.597     163.401      53.294
  C     -118.215     162.248      52.859
  N     -117.633     161.604      51.822
  N     -119.303     161.759      53.391
  C     -119.790     162.517      54.407
  C     -119.273     163.682      54.932
  C     -118.053     164.196      54.344
  O     -117.452     165.209      54.698
  N     -120.043     164.146      55.972
  C     -121.021     163.264      56.074
  N     -120.904     162.252      55.156
  O     -124.513     161.049      60.422
  O     -122.136     160.190      60.825
  H     -119.830     158.523      55.860
  H     -122.516     160.069      61.714
  H     -116.752     163.728      52.855
  H     -121.826     163.308      56.794
  H     -121.778     160.836      53.939
  H     -120.827     160.248      56.811
  H     -116.806     161.934      51.347
  H     -122.427     158.485      56.973
  H     -118.080     160.768      51.462
  H     -124.463     159.813      55.549
  H     -124.359     161.542      57.568
  H     -124.850     159.852      57.851
  P     -123.263     156.745      55.187
  C     -125.763     156.786      55.787
  O     -124.805     156.697      54.739
  O     -122.983     156.170      56.537
  O     -122.536     155.891      54.037
  H     -122.352     154.992      54.381
  H     -126.749     156.744      55.373
  H     -125.635     157.711      56.310
  H     -125.626     155.970      56.466

 6  7  8  9  10  11  12  13  14  15  26  29  33  34 0
 6-311+G(2d,p)
 ****
 36  38  39  40  41 0
 6-311+G(2d,p)
 ****
 1  2  3  4  5  16  17  18  19  20  21  22  23  24  25 0
 3-21G
 ****
 27  28  30  31  32  35  37  42  43  44  45  46  47 0
 3-21G
 ****
 48  49 0
 3-21G
 ****


