%nproc=1
%NoSave
%Mem=1900MB
#P OB98/GEN NMR

erre ene a

0 1
  C      151.053    -236.142    -414.171
  O      150.414    -234.947    -414.569
  H      150.303    -236.818    -413.744
  H      151.806    -235.926    -413.406
  H      151.521    -236.629    -415.031
  P      151.344    -233.809    -415.220
  C      151.682    -232.327    -413.120
  O      152.265    -233.250    -414.028
  C      152.502    -231.033    -413.073
  O      153.729    -231.275    -412.327
  C      152.898    -230.499    -414.461
  O      152.832    -229.065    -414.441
  C      154.351    -230.926    -414.592
  O      155.068    -230.119    -415.523
  C      154.815    -230.785    -413.143
  N      159.780    -230.826    -414.016
  C      158.810    -229.898    -414.371
  N      159.227    -228.824    -415.075
  N      157.546    -230.034    -414.072
  C      157.276    -231.141    -413.342
  C      158.137    -232.139    -412.942
  C      159.535    -231.995    -413.301
  O      160.435    -232.794    -413.037
  N      157.467    -233.122    -412.252
  C      156.207    -232.723    -412.241
  N      156.041    -231.525    -412.890
  O      150.324    -232.602    -415.492
  O      152.084    -234.209    -416.449
  H      155.972    -230.491    -415.602
  H      150.607    -232.075    -416.263
  H      160.745    -230.685    -414.284
  H      155.383    -233.259    -411.790
  H      155.010    -229.742    -412.864
  H      154.409    -231.971    -414.925
  H      160.194    -228.645    -415.319
  H      152.275    -230.888    -415.275
  H      158.531    -228.131    -415.335
  H      151.937    -230.275    -412.508
  H      151.658    -232.777    -412.115
  H      150.659    -232.104    -413.436
  P      151.454    -228.381    -414.893
  C      152.222    -228.091    -417.353
  O      151.247    -228.614    -416.470
  O      151.787    -226.812    -414.789
  O      150.288    -228.743    -414.032
  H      151.321    -226.426    -414.021
  H      151.951    -228.323    -418.362
  H      153.174    -228.525    -417.131
  H      152.278    -227.029    -417.234

 6  7  8  9  10  11  12  13  14  15  26  29  33  34 0
 6-311+G(2d,p)
 ****
 36  38  39  40  41 0
 6-311+G(2d,p)
 ****
 1  2  3  4  5  16  17  18  19  20  21  22  23  24  25 0
 3-21G
 ****
 27  28  30  31  32  35  37  42  43  44  45  46  47 0
 3-21G
 ****
 48  49 0
 3-21G
 ****


