%nproc=1
%NoSave
%Mem=1900MB
#P OB98/GEN NMR

erre ene a

0 1
  C      508.178     -26.427    -223.067
  O      509.580     -26.297    -223.243
  P      510.302     -26.837    -224.571
  C      511.681     -24.652    -224.469
  O      511.708     -26.068    -224.623
  C      512.788     -24.023    -225.307
  O      512.675     -24.463    -226.676
  C      512.751     -22.499    -225.360
  O      513.248     -21.934    -224.155
  C      513.587     -22.231    -226.605
  O      514.987     -22.327    -226.296
  C      513.174     -23.402    -227.523
  N      512.183     -23.013    -228.520
  C      512.674     -22.684    -229.787
  O      513.874     -22.736    -230.038
  N      511.774     -22.339    -230.767
  C      510.504     -22.299    -230.502
  N      509.656     -22.014    -231.530
  C      509.953     -22.581    -229.164
  C      510.836     -22.933    -228.236
  O      509.491     -26.729    -225.816
  O      510.738     -28.328    -224.212
  H      515.162     -21.688    -225.581
  H      510.042     -29.004    -224.411
  H      508.888     -22.524    -228.985
  H      510.512     -23.180    -227.233
  H      514.051     -23.809    -228.037
  H      513.410     -21.244    -227.048
  H      511.725     -22.147    -225.525
  H      513.758     -24.367    -224.915
  H      510.062     -22.002    -232.458
  H      511.848     -24.412    -223.414
  H      508.672     -22.246    -231.479
  H      510.698     -24.277    -224.769
  P      512.234     -21.060    -223.274
  C      513.417     -21.615    -221.033
  O      513.059     -20.615    -221.968
  O      511.188     -22.147    -222.732
  O      511.563     -19.957    -224.018
  H      510.365     -22.113    -223.253
  H      514.162     -21.202    -220.350
  H      513.849     -22.485    -221.541
  H      512.541     -21.920    -220.458
  H      507.897     -26.008    -222.124
  H      507.910     -27.463    -223.091
  H      507.670     -25.909    -223.853

 3  4  5  6  7  8  9  10  11  12  13  23  27  28  29  30  32 0
 6-311+G(2d,p)
 ****
 34  35 0
 6-311+G(2d,p)
 ****
 1  2  14  15  16  17  18  19  20  21  22  24  25  26 0
 3-21G
 ****
 31  33  36  37  38  39  40  41  42  43  44  45  46 0
 3-21G
 ****


