%nproc=1
%NoSave
%Mem=1900MB
#P OB98/GEN NMR

erre ene a

0 1
  C     -296.375      34.167    -153.312
  O     -295.233      34.403    -152.504
  P     -295.270      35.661    -151.508
  C     -294.322      37.288    -153.344
  O     -295.370      36.957    -152.446
  C     -293.798      38.695    -153.045
  O     -294.882      39.536    -152.585
  C     -292.745      38.764    -151.950
  O     -291.471      38.344    -152.416
  C     -292.822      40.232    -151.553
  O     -292.088      41.041    -152.485
  C     -294.335      40.513    -151.680
  N     -295.036      40.502    -150.400
  C     -294.513      41.321    -149.402
  O     -293.519      42.027    -149.563
  N     -295.166      41.282    -148.197
  C     -296.223      40.481    -147.879
  O     -296.740      40.456    -146.770
  C     -296.711      39.614    -148.961
  C     -296.106      39.663    -150.150
  O     -293.762      35.656    -150.974
  O     -296.319      35.544    -150.454
  H     -293.151      35.261    -151.618
  H     -292.156      41.963    -152.165
  H     -294.819      41.886    -147.463
  H     -297.542      38.956    -148.746
  H     -296.445      39.024    -150.958
  H     -294.497      41.492    -152.152
  H     -292.412      40.424    -150.553
  H     -293.050      38.138    -151.100
  H     -293.410      39.125    -153.980
  H     -294.702      37.248    -154.366
  H     -293.516      36.555    -153.242
  P     -290.823      37.067    -151.681
  C     -289.669      38.676    -149.976
  O     -290.471      37.537    -150.190
  O     -289.403      36.975    -152.415
  O     -291.654      35.829    -151.786
  H     -288.987      37.844    -152.541
  H     -289.836      39.034    -148.958
  H     -289.914      39.476    -150.675
  H     -288.615      38.406    -150.086
  H     -296.209      33.303    -153.920
  H     -296.550      35.016    -153.939
  H     -297.227      34.004    -152.686

 3  4  5  6  7  8  9  10  11  12  13  24  28  29  30  31  32 0
 6-311+G(2d,p)
 ****
 33  34 0
 6-311+G(2d,p)
 ****
 1  2  14  15  16  17  18  19  20  21  22  23  25  26  27 0
 3-21G
 ****
 35  36  37  38  39  40  41  42  43  44  45 0
 3-21G
 ****


