%nproc=1
%NoSave
%Mem=1900MB
#P OB98/GEN NMR

erre ene a

0 1
  C       10.451     212.728     -36.128
  O       10.027     211.378     -36.117
  H       10.117     213.206     -35.202
  H       10.021     213.265     -36.975
  H       11.542     212.776     -36.170
  P       10.150     210.538     -37.479
  C       12.536     209.817     -36.817
  O       11.725     210.465     -37.794
  C       13.470     208.795     -37.463
  O       14.077     207.953     -36.460
  C       12.778     207.831     -38.413
  O       12.265     208.423     -39.584
  C       13.804     206.714     -38.529
  O       14.825     207.010     -39.480
  C       14.401     206.698     -37.099
  N       13.934     205.558     -36.318
  C       14.746     204.431     -36.336
  O       15.792     204.358     -36.984
  N       14.300     203.363     -35.609
  C       13.126     203.299     -34.919
  O       12.774     202.300     -34.301
  C       12.289     204.507     -34.967
  C       12.726     205.568     -35.652
  O        9.324     211.039     -38.626
  O        9.799     209.041     -37.038
  H       15.583     206.430     -39.274
  H        9.601     208.474     -37.824
  H       14.885     202.540     -35.596
  H       11.345     204.488     -34.441
  H       12.124     206.474     -35.700
  H       15.497     206.648     -37.147
  H       13.349     205.768     -38.826
  H       11.912     207.401     -37.893
  H       14.275     209.342     -37.967
  H       11.868     209.304     -36.118
  H       13.115     210.567     -36.269
  P       11.344     207.656     -40.635
  C        9.247     209.212     -40.766
  O        9.811     207.989     -40.307
  O       11.706     206.239     -40.935
  O       11.593     208.519     -41.977
  H       11.554     207.896     -42.731
  H        8.223     209.270     -40.460
  H        9.303     209.252     -41.834
  H        9.791     210.034     -40.349

 6  7  8  9  10  11  12  13  14  15  16  26  31  32  33  34  35 0
 6-311+G(2d,p)
 ****
 36  37 0
 6-311+G(2d,p)
 ****
 1  2  3  4  5  17  18  19  20  21  22  23  24  25 0
 3-21G
 ****
 27  28  29  30  38  39  40  41  42  43  44  45 0
 3-21G
 ****


