%nproc=1
%NoSave
%Mem=1900MB
#P OB98/GEN NMR

erre ene a

0 1
  C     -611.936    -899.470    -145.899
  O     -612.097    -898.090    -146.111
  H     -611.670    -899.640    -144.858
  H     -611.143    -899.870    -146.542
  H     -612.878    -900.000    -146.111
  P     -612.532    -897.630    -147.599
  C     -610.647    -896.050    -148.471
  O     -611.896    -896.170    -147.812
  C     -609.965    -894.730    -148.073
  O     -610.555    -893.650    -148.868
  C     -610.162    -894.360    -146.593
  O     -609.020    -893.600    -146.161
  C     -611.370    -893.440    -146.658
  O     -611.481    -892.690    -145.476
  C     -611.035    -892.660    -147.932
  N     -612.616    -889.650    -151.736
  C     -611.433    -890.270    -151.505
  N     -611.090    -891.060    -150.471
  C     -612.137    -891.220    -149.625
  C     -613.395    -890.640    -149.723
  C     -613.615    -889.810    -150.847
  N     -614.803    -889.160    -151.073
  N     -614.182    -891.020    -148.647
  C     -613.407    -891.800    -147.920
  N     -612.170    -891.950    -148.473
  O     -614.099    -897.360    -147.436
  O     -612.243    -898.610    -148.681
  H     -610.766    -892.020    -145.410
  H     -614.604    -898.160    -147.665
  H     -610.671    -890.110    -152.259
  H     -613.693    -892.270    -146.986
  H     -610.232    -891.930    -147.772
  H     -612.297    -894.020    -146.772
  H     -610.294    -895.230    -145.940
  H     -608.903    -894.780    -148.341
  H     -610.821    -896.080    -149.546
  H     -610.009    -896.890    -148.183
  H     -614.878    -888.560    -151.880
  H     -615.557    -889.250    -150.388
  P     -607.626    -894.360    -145.922
  C     -606.774    -894.100    -143.463
  O     -606.755    -893.610    -144.796
  O     -606.810    -894.000    -147.259
  O     -607.706    -895.850    -145.750
  H     -606.384    -894.820    -147.618
  H     -606.145    -893.489    -142.849
  H     -606.416    -895.108    -143.448
  H     -607.775    -894.072    -143.087

 6  7  8  9  10  11  12  13  14  15  25  28  32  33  34  35 0
 6-311+G(2d,p)
 ****
 36  37  40 0
 6-311+G(2d,p)
 ****
 1  2  3  4  5  16  17  18  19  20  21  22  23  24 0
 3-21G
 ****
 26  27  29  30  31  38  39 41  42  43  44  45  46  47  48 0
 3-21G
 ****


