%nproc=1
%NoSave
%Mem=1900MB
#P OB98/GEN NMR

erre ene a

0 1
  C     -133.583     653.209     602.281
  O     -133.493     654.392     603.091
  P     -134.756     655.376     603.184
  C     -134.232     657.007     601.217
  O     -135.092     656.005     601.746
  C     -134.900     657.755     600.050
  O     -136.018     658.561     600.543
  C     -133.971     658.704     599.285
  O     -134.399     658.717     597.917
  C     -134.264     660.049     599.935
  O     -133.880     661.157     599.137
  C     -135.782     659.926     600.140
  N     -136.339     660.866     601.114
  C     -136.886     662.046     600.634
  O     -136.885     662.392     599.450
  N     -137.440     662.871     601.587
  C     -137.454     662.654     602.933
  O     -137.929     663.444     603.735
  C     -136.831     661.402     603.379
  C     -136.314     660.579     602.464
  O     -134.148     656.632     603.973
  O     -135.939     654.828     603.919
  H     -134.257     661.023     598.250
  H     -134.766     656.912     604.676
  H     -137.858     663.728     601.254
  H     -136.824     661.186     604.446
  H     -135.866     659.637     602.772
  H     -136.295     660.056     599.175
  H     -133.735     660.118     600.886
  H     -132.914     658.423     599.352
  H     -135.329     657.007     599.369
  H     -133.312     656.539     600.858
  H     -133.969     657.710     602.013
  P     -133.421     658.100     596.801
  C     -132.232     660.160     595.700
  O     -132.186     659.106     596.648
  O     -134.287     658.363     595.480
  O     -133.080     656.656     597.004
  H     -134.665     659.264     595.451
  H     -133.224     660.626     595.685
  H     -131.997     659.761     594.712
  H     -131.496     660.913     595.976
  H     -132.659     652.671     602.331
  H     -133.780     653.486     601.266
  H     -134.377     652.589     602.642

 3  4  5  6  7  8  9  10  11  12  13  23  28  29  30  31  32 0
 6-311+G(2d,p)
 ****
 33  34 0
 6-311+G(2d,p)
 ****
 1  2  14  15  16  17  18  19  20  21  22  24  25  26 0
 3-21G
 ****
 27  35  36  37  38  39  40  41  42  43  44  45 0
 3-21G
 ****


