%nproc=1
%NoSave
%Mem=1900MB
#P OB98/GEN NMR

erre ene a

0 1
  C      676.867    -132.838     489.949
  O      677.318    -132.713     488.618
  H      677.522    -132.248     490.599
  H      676.914    -133.881     490.269
  H      675.847    -132.462     490.052
  P      676.434    -133.349     487.443
  C      677.667    -135.600     487.183
  O      676.485    -134.940     487.627
  C      677.327    -136.559     486.035
  O      676.142    -137.314     486.365
  C      677.024    -135.858     484.722
  O      678.203    -135.390     484.095
  C      676.294    -136.963     483.974
  O      677.213    -137.883     483.384
  C      675.496    -137.638     485.115
  N      674.093    -137.235     485.116
  C      673.303    -137.735     484.076
  O      673.725    -138.486     483.197
  N      672.011    -137.292     484.054
  C      671.487    -136.324     484.857
  O      670.407    -135.775     484.628
  C      672.339    -135.882     485.967
  C      673.589    -136.352     486.037
  O      676.742    -132.867     486.068
  O      674.926    -132.990     487.869
  H      674.616    -132.231     487.337
  H      677.564    -137.452     482.588
  H      671.445    -137.619     483.269
  H      671.930    -135.157     486.664
  H      674.249    -136.012     486.827
  H      675.548    -138.737     485.010
  H      675.665    -136.561     483.184
  H      676.327    -135.030     484.894
  H      678.167    -137.263     485.923
  H      678.086    -136.170     488.020
  H      678.394    -134.848     486.861
  P      678.116    -134.291     482.922
  C      677.705    -135.516     480.697
  O      677.106    -134.843     481.799
  O      679.433    -133.813     482.409
  O      677.291    -133.096     483.581
  H      677.768    -132.256     483.429
  H      676.943    -135.837     480.018
  H      678.249    -136.367     481.051
  H      678.374    -134.850     480.193

 6  7  8  9  10  11  12  13  14  15  16  27  31  32  33  34  35 0
 6-311+G(2d,p)
 ****
 36  37 0
 6-311+G(2d,p)
 ****
 1  2  3  4  5  17  18  19  20  21  22  23  24  25 0
 3-21G
 ****
 26  28  29  30  38  39  40  41  42  43  44  45 0
 3-21G
 ****


