%nproc=1
%NoSave
%Mem=1900MB
#P OB98/GEN NMR

erre ene a

0 1
  C      571.693     548.968     528.839
  O      572.718     549.209     529.811
  P      572.804     550.567     530.654
  C      574.455     551.725     529.036
  O      573.164     551.774     529.642
  C      574.728     552.950     528.173
  O      573.768     553.050     527.081
  C      574.628     554.286     528.924
  O      575.790     554.526     529.674
  C      574.398     555.266     527.770
  O      575.640     555.595     527.128
  C      573.500     554.435     526.813
  N      569.813     557.870     525.943
  C      571.140     557.852     525.617
  N      572.056     556.903     525.907
  C      571.488     555.870     526.549
  C      570.158     555.731     526.922
  C      569.298     556.806     526.587
  N      567.960     556.824     526.913
  N      569.942     554.549     527.584
  C      571.134     553.961     527.586
  N      572.090     554.717     526.970
  O      573.685     550.504     531.844
  O      571.288     550.884     531.072
  H      576.178     556.095     527.769
  H      571.283     551.393     531.898
  H      571.507     558.726     525.095
  H      571.335     552.985     528.026
  H      573.763     554.609     525.770
  H      573.936     556.204     528.097
  H      573.747     554.290     529.571
  H      575.726     552.855     527.729
  H      574.514     550.825     528.405
  H      567.420     557.633     526.671
  H      567.573     556.056     527.458
  H      575.210     551.649     529.822
  P      575.700     554.776     531.254
  C      575.359     557.319     531.240
  O      574.755     556.059     531.470
  O      576.999     554.805     531.988
  O      574.766     553.577     531.770
  H      575.010     553.345     532.693
  H      575.958     557.617     532.100
  H      574.566     558.051     531.082
  H      575.984     557.302     530.339
  H      571.835     548.001     528.404
  H      571.744     549.714     528.074
  H      570.735     549.009     529.313

 3  4  5  6  7  8  9  10  11  12  22  25  29  30  31  32 0
 6-311+G(2d,p)
 ****
 33  36  37 0
 6-311+G(2d,p)
 ****
 1  2  13  14  15  16  17  18  19  20  21  23  24  26 0
 3-21G
 ****
 27  28  34  35  38  39  40  41  42  43  44  45  46  47  48 0
 3-21G
 ****


