%nproc=1
%NoSave
%Mem=1900MB
#P OB98/GEN NMR

erre ene a

0 1
  C     -754.248     -73.925     222.311
  O     -754.414     -74.655     223.511
  H     -753.648     -73.030     222.493
  H     -753.731     -74.559     221.582
  H     -755.225     -73.646     221.902
  P     -755.183     -73.907     224.704
  C     -756.554     -75.936     225.573
  O     -755.492     -75.030     225.813
  C     -756.372     -77.199     226.407
  O     -755.132     -77.845     226.069
  C     -756.306     -76.960     227.916
  O     -757.600     -76.792     228.479
  C     -755.662     -78.258     228.378
  O     -756.650     -79.306     228.426
  C     -754.656     -78.541     227.254
  N     -750.153     -79.812     229.346
  C     -751.286     -80.520     229.124
  N     -752.430     -80.118     228.543
  C     -752.343     -78.843     228.142
  C     -751.252     -77.988     228.279
  C     -750.116     -78.525     228.909
  N     -748.987     -77.756     229.193
  N     -751.544     -76.737     227.764
  C     -752.788     -76.825     227.355
  N     -753.312     -78.073     227.558
  O     -756.627     -73.603     224.059
  O     -754.528     -72.663     225.205
  H     -757.233     -79.175     227.653
  H     -756.639     -72.688     223.725
  H     -751.260     -81.553     229.469
  H     -753.348     -76.013     226.905
  H     -754.593     -79.606     227.003
  H     -755.219     -78.187     229.380
  H     -755.639     -76.120     228.162
  H     -757.190     -77.894     226.161
  H     -756.573     -76.209     224.508
  H     -748.485     -78.074     230.010
  H     -749.123     -76.754     229.087
  H     -757.500     -75.444     225.829
  P     -757.997     -75.331     229.012
  C     -760.268     -75.393     227.764
  O     -759.598     -75.262     229.022
  O     -757.584     -74.381     227.789
  O     -757.322     -74.901     230.276
  H     -756.961     -73.686     228.099
  H     -761.325     -75.329     227.915
  H     -760.026     -76.340     227.328
  H     -759.953     -74.608     227.109

 6  7  8  9  10  11  12  13  14  15  25  28  32  33  34  35 0
 6-311+G(2d,p)
 ****
 36  39  40 0
 6-311+G(2d,p)
 ****
 1  2  3  4  5  16  17  18  19  20  21  22  23  24 0
 3-21G
 ****
 26  27  29  30  31  37  38  41  42  43  44  45  46  47  48 0
 3-21G
 ****


