%nproc=1
%NoSave
%Mem=1900MB
#P OB98/GEN NMR

erre ene a

0 1
  C      -87.855    -692.414     993.977
  O      -88.618    -692.207     995.144
  H      -87.032    -691.694     993.960
  H      -88.483    -692.251     993.096
  H      -87.440    -693.432     993.951
  P      -89.621    -693.379     995.588
  C      -88.290    -694.839     997.278
  O      -88.711    -694.659     995.932
  C      -88.813    -696.167     997.827
  O      -88.414    -697.231     996.909
  C      -88.268    -696.531     999.220
  O      -89.301    -697.187     999.969
  C      -87.187    -697.542     998.914
  O      -86.905    -698.391    1000.018
  C      -87.790    -698.262     997.714
  N      -84.468    -701.995     998.128
  C      -85.471    -701.593     998.996
  N      -85.559    -702.223    1000.175
  N      -86.307    -700.619     998.716
  C      -86.112    -700.075     997.492
  C      -85.165    -700.387     996.548
  C      -84.224    -701.445     996.876
  O      -83.311    -701.845     996.165
  N      -85.264    -699.561     995.459
  C      -86.255    -698.737     995.747
  N      -86.810    -699.016     996.975
  O      -90.318    -693.776     994.200
  O      -90.616    -693.009     996.630
  H      -87.726    -698.836    1000.289
  H      -91.173    -693.290     994.112
  H      -83.838    -702.735     998.402
  H      -86.599    -697.930     995.120
  H      -88.585    -698.973     998.006
  H      -86.261    -697.028     998.626
  H      -84.975    -702.993    1000.452
  H      -87.900    -695.660     999.796
  H      -86.312    -701.962    1000.802
  H      -89.909    -696.147     997.829
  H      -88.700    -694.021     997.890
  H      -87.199    -694.800     997.325
  P      -90.053    -696.361    1001.129
  C      -91.369    -694.575     999.753
  O      -90.273    -694.853    1000.621
  O      -88.917    -696.220    1002.244
  O      -91.268    -697.052    1001.651
  H      -89.328    -696.246    1003.132
  H      -91.375    -693.533     999.509
  H      -92.285    -694.832    1000.242
  H      -91.269    -695.151     998.857

 6  7  8  9  10  11  12  13  14  15  26  29  33  34 0
 6-311+G(2d,p)
 ****
 36  38  39  40  41 0
 6-311+G(2d,p)
 ****
 1  2  3  4  5  16  17  18  19  20  21  22  23  24  25 0
 3-21G
 ****
 27  28  30  31  32  35  37  42  43  44  45  46  47 0
 3-21G
 ****
 48  49 0
 3-21G
 ****


