%nproc=1
%NoSave
%Mem=1900MB
#P OB98/GEN NMR

erre ene a

0 1
  C        2.861     193.664    -131.391
  O        1.993     193.174    -130.364
  P        0.414     193.311    -130.619
  C       -0.035     190.809    -131.119
  O       -0.281     191.909    -130.254
  C       -0.911     189.605    -130.754
  O       -0.597     189.121    -129.418
  C       -2.412     189.907    -130.777
  O       -3.091     188.717    -131.203
  C       -2.733     190.153    -129.316
  O       -4.127     190.012    -129.053
  C       -1.824     189.116    -128.660
  N       -1.527     187.119    -123.970
  C       -1.803     186.569    -125.170
  N       -1.885     187.176    -126.376
  C       -1.602     188.484    -126.261
  C       -1.313     189.190    -125.104
  C       -1.281     188.450    -123.910
  N       -1.027     189.015    -122.681
  N       -1.128     190.530    -125.386
  C       -1.307     190.629    -126.687
  N       -1.566     189.418    -127.264
  O        0.308     193.383    -132.214
  O       -0.198     194.511    -129.976
  H       -4.346     189.055    -129.068
  H        0.077     194.289    -132.491
  H       -1.988     185.496    -125.165
  H       -1.269     191.546    -127.256
  H       -2.247     188.104    -128.697
  H       -2.433     191.170    -129.035
  H       -2.701     190.747    -131.417
  H       -0.688     188.792    -131.458
  H        1.019     190.517    -131.064
  H       -1.053     188.419    -121.869
  H       -0.889     190.014    -122.618
  H       -0.204     191.127    -132.155
  P       -4.481     188.924    -131.973
  C       -3.622     189.221    -134.405
  O       -4.255     188.377    -133.461
  O       -4.577     190.511    -132.163
  O       -5.667     188.372    -131.252
  H       -5.511     190.784    -132.241
  H       -2.934     188.622    -135.009
  H       -3.058     190.027    -133.924
  H       -4.381     189.657    -135.058
  H        3.879     193.514    -131.099
  H        2.683     194.709    -131.540
  H        2.670     193.136    -132.302

 3  4  5  6  7  8  9  10  11  12  22  25  29  30  31  32 0
 6-311+G(2d,p)
 ****
 33  36  37 0
 6-311+G(2d,p)
 ****
 1  2  13  14  15  16  17  18  19  20  21  23  24  26 0
 3-21G
 ****
 27  28  34  35  38  39  40  41  42  43  44  45  46  47  48 0
 3-21G
 ****


