%nproc=1
%NoSave
%Mem=1900MB
#P OB98/GEN NMR

erre ene a

0 1
  C      145.940      94.503      11.364
  O      145.951      93.206      10.791
  P      145.021      92.850       9.533
  C      142.573      93.368       8.941
  O      143.540      93.272       9.980
  C      141.224      92.849       9.431
  O      140.804      93.660      10.554
  C      140.075      92.929       8.428
  O      140.006      91.839       7.521
  C      138.876      92.877       9.367
  O      138.643      91.520       9.784
  C      139.356      93.720      10.551
  N      135.318      96.860      10.472
  C      135.419      95.519      10.612
  N      136.531      94.754      10.603
  C      137.628      95.517      10.473
  C      137.685      96.894      10.326
  C      136.456      97.577      10.330
  N      136.358      98.946      10.211
  N      138.993      97.318      10.200
  C      139.709      96.216      10.283
  N      138.931      95.105      10.457
  O      145.175      91.458       9.025
  O      145.394      93.954       8.440
  H      137.944      91.548      10.465
  H      145.083      93.669       7.559
  H      134.481      94.987      10.743
  H      140.787      96.175      10.220
  H      139.012      93.328      11.515
  H      137.953      93.230       8.898
  H      140.074      93.888       7.896
  H      141.359      91.822       9.789
  H      142.911      92.753       8.100
  H      135.451      99.360      10.355
  H      137.207      99.491      10.268
  H      142.499      94.404       8.603
  P      139.007      91.988       6.269
  C      136.405      92.200       6.094
  O      137.530      91.873       6.880
  O      139.302      91.081       5.128
  O      139.133      93.541       5.900
  H      138.780      94.155       6.565
  H      135.501      91.903       6.632
  H      136.429      91.672       5.137
  H      136.370      93.279       5.919
  H      146.624      94.536      12.186
  H      144.954      94.731      11.711
  H      146.233      95.221      10.627

 3  4  5  6  7  8  9  10  11  12  22  25  29  30  31  32 0
 6-311+G(2d,p)
 ****
 33  36  37 0
 6-311+G(2d,p)
 ****
 1  2  13  14  15  16  17  18  19  20  21  23  24  26 0
 3-21G
 ****
 27  28  34  35  38  39  40  41  42  43  44  45  46  47  48 0
 3-21G
 ****


