%nproc=1
%NoSave
%Mem=1900MB
#P OB98/GEN NMR

erre ene a

0 1
  C     -183.583     144.402     101.437
  O     -184.063     145.659     101.001
  H     -182.502     144.369     101.284
  H     -184.043     143.600     100.853
  H     -183.789     144.254     102.501
  P     -185.600     146.029     101.258
  C     -187.774     144.927     100.409
  O     -186.449     145.335     100.089
  C     -188.228     143.839      99.437
  O     -187.572     142.590      99.744
  C     -189.723     143.549      99.496
  O     -190.466     144.552      98.834
  C     -189.774     142.179      98.840
  O     -189.737     142.295      97.408
  C     -188.481     141.526      99.375
  N     -188.723     140.623     100.500
  C     -189.006     139.299     100.183
  O     -189.088     138.884      99.026
  N     -189.223     138.463     101.246
  C     -189.298     138.841     102.557
  O     -189.584     138.066     103.464
  C     -189.015     140.256     102.831
  C     -188.745     141.069     101.808
  O     -185.890     147.477     101.473
  O     -185.988     145.158     102.546
  H     -190.595     142.679      97.142
  H     -186.035     145.741     103.327
  H     -189.442     137.503     101.036
  H     -189.050     140.588     103.860
  H     -188.541     142.117     101.990
  H     -187.985     140.954      98.580
  H     -190.681     141.632      99.094
  H     -190.047     143.451     100.540
  H     -187.930     144.137      98.423
  H     -188.439     145.793     100.324
  H     -187.794     144.562     101.441
  P     -192.040     144.687      99.100
  C     -193.995     143.020      99.151
  O     -192.743     143.352      98.558
  O     -192.660     145.963      98.632
  O     -192.170     144.543     100.688
  H     -192.562     145.357     101.056
  H     -194.368     142.117      98.715
  H     -194.692     143.813      98.980
  H     -193.865     142.881     100.204

 6  7  8  9  10  11  12  13  14  15  16  26  31  32  33  34  35 0
 6-311+G(2d,p)
 ****
 36  37 0
 6-311+G(2d,p)
 ****
 1  2  3  4  5  17  18  19  20  21  22  23  24  25 0
 3-21G
 ****
 27  28  29  30  38  39  40  41  42  43  44  45 0
 3-21G
 ****


