%nproc=1
%NoSave
%Mem=1900MB
#P OB98/GEN NMR

erre ene a

0 1
  C      120.552    -332.561    -297.230
  O      120.217    -331.249    -296.789
  P      118.760    -331.016    -296.157
  C      119.361    -329.345    -294.263
  O      119.003    -330.681    -294.607
  C      119.975    -329.301    -292.866
  O      121.056    -330.259    -292.762
  C      120.579    -327.957    -292.476
  O      119.595    -327.039    -292.012
  C      121.492    -328.366    -291.342
  O      120.730    -328.544    -290.129
  C      122.035    -329.720    -291.826
  N      126.666    -331.835    -292.358
  C      125.623    -332.141    -291.560
  N      124.424    -331.530    -291.465
  C      124.374    -330.462    -292.292
  C      125.382    -329.997    -293.139
  C      126.569    -330.746    -293.167
  N      127.627    -330.447    -293.994
  N      124.962    -328.880    -293.828
  C      123.734    -328.661    -293.404
  N      123.325    -329.603    -292.483
  O      118.139    -332.502    -296.115
  O      117.889    -330.067    -296.906
  H      120.197    -327.734    -290.003
  H      117.168    -332.456    -296.109
  H      125.757    -333.007    -290.915
  H      123.088    -327.865    -293.749
  H      122.140    -330.449    -291.011
  H      122.263    -327.612    -291.117
  H      121.173    -327.535    -293.299
  H      119.203    -329.598    -292.141
  H      118.466    -328.722    -294.274
  H      128.367    -331.132    -294.093
  H      127.465    -329.762    -294.736
  H      120.080    -328.962    -295.007
  P      119.756    -325.514    -292.460
  C      117.686    -325.217    -294.004
  O      119.085    -325.408    -293.917
  O      121.328    -325.378    -292.749
  O      119.277    -324.519    -291.450
  H      121.624    -324.453    -292.632
  H      117.443    -324.874    -295.018
  H      117.349    -324.469    -293.295
  H      117.159    -326.161    -293.834
  H      121.547    -332.562    -297.624
  H      119.866    -332.867    -297.992
  H      120.495    -333.240    -296.405

 3  4  5  6  7  8  9  10  11  12  22  25  29  30  31  32 0
 6-311+G(2d,p)
 ****
 33  36  37 0
 6-311+G(2d,p)
 ****
 1  2  13  14  15  16  17  18  19  20  21  23  24  26 0
 3-21G
 ****
 27  28  34  35  38  39  40  41  42  43  44  45  46  47  48 0
 3-21G
 ****


