%nproc=1
%NoSave
%Mem=1900MB
#P OB98/GEN NMR

erre ene a

0 1
  C        6.047     172.980    -292.057
  O        6.982     173.959    -291.640
  P        7.041     175.328    -292.476
  C        6.857     176.829    -290.359
  O        6.267     176.416    -291.590
  C        5.782     177.307    -289.389
  O        5.011     176.189    -288.917
  C        6.332     177.983    -288.144
  O        6.738     179.303    -288.429
  C        5.136     177.893    -287.202
  O        4.245     179.004    -287.392
  C        4.466     176.567    -287.632
  N        4.638     175.508    -286.651
  C        3.681     175.465    -285.627
  O        2.777     176.304    -285.590
  N        3.798     174.500    -284.657
  C        4.784     173.659    -284.703
  N        4.849     172.722    -283.718
  C        5.827     173.685    -285.749
  C        5.694     174.628    -286.681
  O        6.039     175.054    -293.691
  O        8.404     175.720    -292.941
  H        4.736     179.793    -287.082
  H        6.273     175.598    -294.467
  H        6.628     172.960    -285.742
  H        6.413     174.723    -287.486
  H        3.388     176.714    -287.785
  H        5.441     177.908    -286.151
  H        7.169     177.406    -287.729
  H        5.106     177.985    -289.928
  H        4.124     172.735    -283.011
  H        7.551     177.653    -290.552
  H        5.563     172.011    -283.678
  H        7.419     175.991    -289.937
  P        8.307     179.623    -288.418
  C        8.075     180.406    -290.849
  O        8.754     179.548    -289.956
  O        8.921     178.264    -287.824
  O        8.755     180.821    -287.653
  H        9.879     178.370    -287.674
  H        8.574     180.373    -291.821
  H        8.092     181.436    -290.478
  H        7.038     180.075    -290.973
  H        6.115     172.126    -291.416
  H        6.261     172.688    -293.064
  H        5.058     173.386    -292.006

 3  4  5  6  7  8  9  10  11  12  13  21  23  27  28  29  30  32 0
 6-311+G(2d,p)
 ****
 34  35 0
 6-311+G(2d,p)
 ****
 1  2  14  15  16  17  18  19  20  22  24  25  26 0
 3-21G
 ****
 31  33  36  37  38  39  40  41  42  43  44  45  46 0
 3-21G
 ****


