%nproc=1
%NoSave
%Mem=1900MB
#P OB98/GEN NMR

erre ene a

0 1
  C     -225.349     818.259     470.191
  O     -225.215     819.669     470.341
  P     -226.399     820.482     471.055
  C     -225.185     820.722     473.396
  O     -225.815     821.319     472.288
  C     -225.338     821.644     474.620
  O     -224.842     820.979     475.813
  C     -224.570     822.952     474.489
  O     -225.336     823.950     473.817
  C     -224.283     823.294     475.945
  O     -225.450     823.839     476.569
  C     -223.965     821.897     476.516
  N     -222.570     821.391     476.400
  C     -222.095     820.462     477.334
  O     -222.754     820.031     478.272
  N     -220.808     820.040     477.143
  C     -220.013     820.294     476.062
  O     -218.889     819.839     475.920
  C     -220.621     821.155     475.036
  C     -221.846     821.660     475.255
  O     -227.275     819.338     471.756
  O     -227.216     821.326     470.135
  H     -225.672     824.661     476.102
  H     -228.162     819.304     471.357
  H     -220.414     819.430     477.854
  H     -220.044     821.349     474.135
  H     -222.296     822.304     474.500
  H     -224.227     821.848     477.581
  H     -223.509     824.053     476.019
  H     -223.617     822.790     473.984
  H     -226.409     821.845     474.770
  H     -224.127     820.541     473.196
  H     -225.640     819.745     473.604
  P     -224.699     824.733     472.578
  C     -224.155     822.930     470.837
  O     -225.097     823.885     471.274
  O     -223.245     825.097     472.704
  O     -225.633     826.034     472.449
  H     -225.232     826.803     472.915
  H     -224.598     822.309     470.060
  H     -223.857     822.282     471.677
  H     -223.268     823.431     470.436
  H     -224.482     817.869     469.700
  H     -226.218     818.044     469.605
  H     -225.447     817.805     471.155

 3  4  5  6  7  8  9  10  11  12  13  23  28  29  30  31  32 0
 6-311+G(2d,p)
 ****
 33  34 0
 6-311+G(2d,p)
 ****
 1  2  14  15  16  17  18  19  20  21  22  24  25  26  27 0
 3-21G
 ****
 35  36  37  38  39  40  41  42  43  44  45 0
 3-21G
 ****


