%nproc=1
%NoSave
%Mem=1900MB
#P OB98/GEN NMR

erre ene a

0 1
  C      573.519    -205.362    -189.939
  O      574.674    -205.649    -189.145
  P      574.441    -206.064    -187.610
  C      576.072    -208.110    -187.776
  O      575.759    -206.866    -187.164
  C      577.289    -208.755    -187.091
  O      578.501    -208.013    -187.439
  C      577.204    -208.814    -185.560
  O      577.797    -210.063    -185.159
  C      578.063    -207.646    -185.135
  O      578.541    -207.799    -183.792
  C      579.163    -207.693    -186.207
  N      579.906    -206.432    -186.312
  C      581.135    -206.368    -185.660
  O      581.568    -207.280    -184.937
  N      581.831    -205.201    -185.811
  C      581.398    -204.086    -186.464
  O      582.067    -203.066    -186.569
  C      580.050    -204.173    -187.040
  C      579.365    -205.312    -186.925
  O      573.320    -207.196    -187.764
  O      574.064    -204.907    -186.746
  H      573.433    -207.755    -188.556
  H      577.803    -208.138    -183.236
  H      582.741    -205.141    -185.369
  H      579.637    -203.286    -187.509
  H      578.358    -205.411    -187.318
  H      579.877    -208.486    -185.986
  H      577.502    -206.708    -185.195
  H      576.173    -208.753    -185.188
  H      577.392    -209.775    -187.508
  H      576.305    -207.956    -188.837
  H      575.196    -208.758    -187.739
  P      576.816    -211.252    -184.703
  C      578.724    -213.023    -184.908
  O      577.735    -212.413    -184.113
  O      576.373    -211.824    -186.135
  O      575.654    -210.814    -183.866
  H      577.122    -211.955    -186.738
  H      579.389    -213.608    -184.275
  H      579.326    -212.279    -185.454
  H      578.249    -213.702    -185.633
  H      573.824    -205.102    -190.931
  H      572.982    -204.544    -189.505
  H      572.887    -206.225    -189.974

 3  4  5  6  7  8  9  10  11  12  13  24  28  29  30  31  32 0
 6-311+G(2d,p)
 ****
 33  34 0
 6-311+G(2d,p)
 ****
 1  2  14  15  16  17  18  19  20  21  22  23  25  26  27 0
 3-21G
 ****
 35  36  37  38  39  40  41  42  43  44  45 0
 3-21G
 ****


