%nproc=1
%NoSave
%Mem=1900MB
#P OB98/GEN NMR

erre ene a

0 1
  C      -52.136     -90.861     -43.815
  O      -53.007     -91.619     -44.634
  H      -51.105     -91.083     -44.101
  H      -52.278     -91.138     -42.768
  H      -52.320     -89.791     -43.949
  P      -54.581     -91.373     -44.440
  C      -56.332     -91.970     -42.618
  O      -54.977     -92.062     -43.039
  C      -56.557     -92.785     -41.344
  O      -56.240     -94.185     -41.616
  C      -55.695     -92.343     -40.147
  O      -56.467     -92.523     -38.955
  C      -54.570     -93.366     -40.145
  O      -53.932     -93.469     -38.874
  C      -55.341     -94.617     -40.575
  N      -52.784     -98.694     -39.084
  C      -53.641     -97.861     -38.385
  N      -53.848     -98.164     -37.083
  N      -54.240     -96.827     -38.910
  C      -53.967     -96.665     -40.226
  C      -53.137     -97.411     -41.033
  C      -52.458     -98.539     -40.431
  O      -51.675     -99.299     -40.994
  N      -53.103     -96.906     -42.314
  C      -53.913     -95.857     -42.278
  N      -54.459     -95.673     -41.035
  O      -55.225     -92.349     -45.537
  O      -55.036     -89.961     -44.610
  H      -54.628     -93.621     -38.199
  H      -55.389     -91.863     -46.367
  H      -52.342     -99.471     -38.628
  H      -54.131     -95.205     -43.114
  H      -55.940     -95.039     -39.757
  H      -53.810     -93.100     -40.890
  H      -53.461     -98.972     -36.622
  H      -55.339     -91.306     -40.206
  H      -54.506     -97.593     -36.561
  H      -57.626     -92.749     -41.091
  H      -56.979     -92.360     -43.413
  H      -56.583     -90.918     -42.439
  P      -57.014     -91.214     -38.204
  C      -56.215     -89.665     -36.268
  O      -55.967     -90.824     -37.050
  O      -58.264     -91.775     -37.370
  O      -57.415     -90.104     -39.121
  H      -58.917     -91.067     -37.233
  H      -55.431     -89.545     -35.549
  H      -57.151     -89.771     -35.761
  H      -56.249     -88.806     -36.905

 6  7  8  9  10  11  12  13  14  15  26  29  33  34 0
 6-311+G(2d,p)
 ****
 36  38  39  40  41 0
 6-311+G(2d,p)
 ****
 1  2  3  4  5  16  17  18  19  20  21  22  23  24  25 0
 3-21G
 ****
 27  28  30  31  32  35  37  42  43  44  45  46  47 0
 3-21G
 ****
 48  49 0
 3-21G
 ****


