%nproc=1
%NoSave
%Mem=1900MB
#P OB98/GEN NMR

erre ene a

0 1
  C      334.956     940.265     329.302
  O      336.282     940.291     329.836
  P      337.228     941.550     329.553
  C      339.201     940.012     328.927
  O      338.762     941.106     329.709
  C      340.689     939.702     329.188
  O      341.455     940.938     329.202
  C      340.922     938.997     330.535
  O      341.707     937.813     330.419
  C      341.493     940.088     331.418
  O      342.256     939.586     332.496
  C      342.219     940.984     330.417
  N      342.374     942.351     330.917
  C      343.551     942.641     331.594
  O      344.411     941.784     331.851
  N      343.698     943.936     332.031
  C      342.770     944.919     331.936
  O      342.924     946.048     332.379
  C      341.509     944.547     331.253
  C      341.371     943.298     330.795
  O      336.851     942.809     330.259
  O      337.100     941.738     327.959
  H      342.906     938.919     332.144
  H      337.077     942.695     327.771
  H      344.561     944.171     332.511
  H      340.734     945.291     331.182
  H      340.460     942.989     330.307
  H      343.221     940.601     330.200
  H      340.652     940.658     331.854
  H      339.969     938.632     330.963
  H      341.039     939.079     328.362
  H      339.074     940.254     327.868
  H      338.562     939.147     329.119
  P      341.175     936.403     329.876
  C      342.785     934.805     331.139
  O      342.391     935.361     329.891
  O      340.399     936.451     328.602
  O      340.233     935.891     331.070
  H      339.433     935.470     330.706
  H      343.806     934.444     331.039
  H      342.132     933.966     331.381
  H      342.756     935.547     331.929
  H      334.473     939.354     329.590
  H      335.000     940.323     328.234
  H      334.402     941.098     329.682

 3  4  5  6  7  8  9  10  11  12  13  23  28  29  30  31  32 0
 6-311+G(2d,p)
 ****
 33  34 0
 6-311+G(2d,p)
 ****
 1  2  14  15  16  17  18  19  20  21  22  24  25  26  27 0
 3-21G
 ****
 35  36  37  38  39  40  41  42  43  44  45 0
 3-21G
 ****


