%nproc=1
%NoSave
%Mem=1900MB
#P OB98/GEN NMR

erre ene a

0 1
  C     -241.472     695.585    -522.537
  O     -242.463     696.312    -523.255
  P     -244.013     695.902    -523.038
  C     -244.616     698.118    -521.771
  O     -244.559     696.693    -521.746
  C     -244.991     698.668    -520.390
  O     -243.889     698.565    -519.461
  C     -245.355     700.159    -520.415
  O     -246.717     700.340    -520.811
  C     -245.195     700.519    -518.927
  O     -246.325     700.078    -518.196
  C     -243.957     699.685    -518.541
  N     -241.266     703.597    -516.610
  C     -242.522     703.155    -516.359
  N     -243.178     702.116    -516.920
  C     -242.388     701.507    -517.823
  C     -241.092     701.849    -518.201
  C     -240.528     702.951    -517.543
  N     -239.256     703.406    -517.815
  N     -240.625     700.991    -519.175
  C     -241.601     700.143    -519.390
  N     -242.696     700.418    -518.599
  O     -243.917     694.385    -522.547
  O     -244.853     696.033    -524.267
  H     -246.341     699.108    -518.236
  H     -244.680     693.888    -522.859
  H     -243.077     703.706    -515.583
  H     -241.558     699.307    -520.088
  H     -244.037     699.266    -517.526
  H     -245.086     701.596    -518.777
  H     -244.646     700.731    -521.025
  H     -245.841     698.083    -520.002
  H     -245.340     698.435    -522.522
  H     -238.910     704.177    -517.274
  H     -238.687     702.913    -518.483
  H     -243.640     698.497    -522.105
  P     -246.973     700.599    -522.363
  C     -248.045     698.230    -522.643
  O     -247.037     699.144    -523.043
  O     -245.595     701.227    -522.895
  O     -248.141     701.490    -522.656
  H     -245.753     701.821    -523.640
  H     -248.123     697.418    -523.390
  H     -249.015     698.735    -522.556
  H     -247.784     697.787    -521.660
  H     -240.503     695.967    -522.781
  H     -241.525     694.550    -522.804
  H     -241.643     695.692    -521.486

 3  4  5  6  7  8  9  10  11  12  22  25  29  30  31  32 0
 6-311+G(2d,p)
 ****
 33  36  37 0
 6-311+G(2d,p)
 ****
 1  2  13  14  15  16  17  18  19  20  21  23  24  26 0
 3-21G
 ****
 27  28  34  35  38  39  40  41  42  43  44  45  46  47  48 0
 3-21G
 ****


