%nproc=1
%NoSave
%Mem=1900MB
#P OB98/GEN NMR

erre ene a

0 1
  C      749.515     -71.510     279.661
  O      750.798     -72.139     279.605
  P      751.421     -72.680     280.987
  C      752.972     -74.462     279.871
  O      752.870     -73.297     280.683
  C      754.273     -74.453     279.076
  O      754.288     -73.388     278.111
  C      755.500     -74.208     279.954
  O      755.865     -75.385     280.644
  C      756.533     -73.754     278.926
  O      757.277     -74.851     278.386
  C      755.669     -73.078     277.828
  N      755.874     -71.633     277.748
  C      756.480     -71.172     276.562
  O      756.815     -71.980     275.691
  N      756.702     -69.833     276.435
  C      756.389     -69.009     277.411
  N      756.639     -67.692     277.209
  C      755.779     -69.461     278.667
  C      755.554     -70.782     278.775
  O      750.524     -73.971     281.302
  O      751.379     -71.678     282.103
  H      757.705     -75.288     279.147
  H      750.422     -74.078     282.270
  H      755.529     -68.758     279.444
  H      755.107     -71.192     279.671
  H      755.895     -73.517     276.855
  H      757.263     -73.064     279.378
  H      755.296     -73.388     280.660
  H      754.375     -75.414     278.539
  H      757.069     -67.415     276.318
  H      752.112     -74.513     279.182
  H      756.444     -66.984     277.888
  H      752.900     -75.355     280.508
  P      756.052     -75.296     282.224
  C      754.904     -77.579     282.509
  O      756.079     -76.832     282.737
  O      754.613     -74.817     282.719
  O      757.144     -74.402     282.743
  H      754.605     -74.628     283.662
  H      755.122     -78.643     282.705
  H      754.573     -77.490     281.476
  H      754.118     -77.260     283.185
  H      749.226     -71.202     278.678
  H      749.565     -70.655     280.303
  H      748.795     -72.202     280.044

 3  4  5  6  7  8  9  10  11  12  13  21  23  27  28  29  30  32 0
 6-311+G(2d,p)
 ****
 34  35 0
 6-311+G(2d,p)
 ****
 1  2  14  15  16  17  18  19  20  22  24  25  26 0
 3-21G
 ****
 31  33  36  37  38  39  40  41  42  43  44  45  46 0
 3-21G
 ****


