%nproc=1
%NoSave
%Mem=1900MB
#P OB98/GEN NMR

erre ene a

0 1
  C      321.539     154.898      25.566
  O      321.008     156.209      25.644
  P      321.030     157.101      24.308
  C      322.903     158.659      25.207
  O      321.572     158.553      24.724
  C      323.230     160.102      25.591
  O      323.034     160.956      24.427
  C      322.366     160.674      26.727
  O      323.205     161.557      27.478
  C      321.304     161.442      25.963
  O      320.593     162.383      26.749
  C      322.147     162.021      24.831
  N      320.888     166.069      21.974
  C      321.775     165.921      22.984
  N      322.061     164.808      23.694
  C      321.331     163.769      23.258
  C      320.378     163.770      22.255
  C      320.163     164.990      21.593
  N      319.252     165.140      20.568
  N      319.814     162.521      22.109
  C      320.415     161.774      23.014
  N      321.353     162.479      23.716
  O      319.478     157.357      24.021
  O      321.721     156.472      23.139
  H      319.827     162.726      26.247
  H      319.287     157.325      23.065
  H      322.326     166.815      23.261
  H      320.201     160.732      23.207
  H      322.767     162.862      25.171
  H      320.566     160.733      25.569
  H      321.966     159.904      27.395
  H      324.292     160.157      25.859
  H      323.599     158.346      24.423
  H      319.031     166.087      20.299
  H      318.580     164.394      20.438
  H      323.034     157.986      26.060
  P      323.184     161.469      29.082
  C      322.852     164.018      29.114
  O      323.647     162.933      29.555
  O      324.506     160.609      29.356
  O      321.941     160.914      29.688
  H      325.276     160.976      28.888
  H      323.220     164.932      29.585
  H      321.808     163.864      29.401
  H      322.933     164.121      28.029
  H      321.460     154.424      26.522
  H      322.568     154.947      25.276
  H      320.991     154.334      24.841

 3  4  5  6  7  8  9  10  11  12  22  25  29  30  31  32 0
 6-311+G(2d,p)
 ****
 33  36  37 0
 6-311+G(2d,p)
 ****
 1  2  13  14  15  16  17  18  19  20  21  23  24  26 0
 3-21G
 ****
 27  28  34  35  38  39  40  41  42  43  44  45  46  47  48 0
 3-21G
 ****


