%nproc=1
%NoSave
%Mem=1900MB
#P OB98/GEN NMR

erre ene a

0 1
  C      126.993     238.279     149.171
  O      128.175     237.513     149.078
  H      126.318     237.786     149.874
  H      126.510     238.334     148.195
  H      127.208     239.289     149.534
  P      129.462     238.157     148.377
  C      130.502     235.811     148.042
  O      130.674     237.120     148.569
  C      131.704     234.920     148.386
  O      132.919     235.583     147.941
  C      131.836     234.720     149.900
  O      132.474     233.479     150.219
  C      132.750     235.854     150.312
  O      133.438     235.610     151.544
  C      133.676     235.960     149.098
  N      136.756     239.597     150.936
  C      136.313     238.437     151.539
  N      136.747     238.222     152.814
  N      135.497     237.588     150.978
  C      135.085     237.973     149.740
  C      135.439     239.102     149.036
  C      136.369     240.015     149.667
  O      136.780     241.068     149.177
  N      134.812     239.152     147.817
  C      134.076     238.059     147.782
  N      134.228     237.299     148.912
  O      129.871     239.353     149.361
  O      129.256     238.645     146.973
  H      134.222     236.190     151.566
  H      130.399     240.022     148.884
  H      137.406     240.205     151.404
  H      133.439     237.761     146.955
  H      134.519     235.266     149.195
  H      132.141     236.748     150.467
  H      137.209     238.943     153.343
  H      130.883     234.770     150.421
  H      136.195     237.566     153.370
  H      131.638     233.971     147.836
  H      130.387     235.917     146.956
  H      129.570     235.367     148.426
  P      132.088     232.758     151.602
  C      134.328     231.590     152.411
  O      133.037     231.491     151.837
  O      130.659     232.104     151.308
  O      132.059     233.673     152.791
  H      129.972     232.520     151.877
  H      134.769     230.617     152.467
  H      134.250     232.003     153.395
  H      134.940     232.225     151.805

 6  7  8  9  10  11  12  13  14  15  26  29  33  34 0
 6-311+G(2d,p)
 ****
 36  38  39  40  41 0
 6-311+G(2d,p)
 ****
 1  2  3  4  5  16  17  18  19  20  21  22  23  24  25 0
 3-21G
 ****
 27  28  30  31  32  35  37  42  43  44  45  46  47 0
 3-21G
 ****
 48  49 0
 3-21G
 ****


