%nproc=1
%NoSave
%Mem=1900MB
#P OB98/GEN NMR

erre ene a

0 1
  C      -36.836    -358.180     162.821
  O      -36.566    -356.805     162.974
  H      -37.892    -358.303     162.569
  H      -36.636    -358.700     163.762
  H      -36.230    -358.621     162.024
  P      -35.048    -356.305     162.905
  C      -35.011    -355.506     160.452
  O      -34.545    -356.470     161.388
  C      -33.905    -355.066     159.491
  O      -34.478    -354.398     158.345
  C      -32.944    -354.063     160.129
  O      -31.901    -354.630     160.899
  C      -32.392    -353.339     158.905
  O      -31.279    -354.056     158.346
  C      -33.579    -353.351     157.940
  N      -33.596    -348.505     156.325
  C      -32.602    -349.456     156.207
  N      -31.449    -349.046     155.636
  N      -32.731    -350.687     156.626
  C      -33.903    -350.927     157.260
  C      -34.956    -350.060     157.452
  C      -34.825    -348.713     156.934
  O      -35.672    -347.830     157.019
  N      -35.983    -350.661     158.137
  C      -35.522    -351.861     158.424
  N      -34.274    -352.079     157.890
  O      -34.237    -357.462     163.664
  O      -34.785    -354.967     163.525
  H      -30.731    -353.429     157.842
  H      -33.416    -357.098     164.042
  H      -33.453    -347.580     155.959
  H      -36.059    -352.617     158.988
  H      -33.259    -353.583     156.915
  H      -32.028    -352.338     159.157
  H      -31.261    -348.083     155.405
  H      -33.499    -353.339     160.735
  H      -30.617    -349.626     155.771
  H      -33.378    -355.952     159.118
  H      -35.364    -354.650     161.031
  H      -35.866    -355.898     159.898
  P      -30.667    -353.722     161.368
  C      -31.910    -352.939     163.516
  O      -31.263    -352.576     162.316
  O      -30.271    -352.943     160.028
  O      -29.512    -354.475     161.934
  H      -29.534    -353.396     159.579
  H      -32.244    -352.057     164.022
  H      -31.226    -353.472     164.143
  H      -32.751    -353.563     163.293

 6  7  8  9  10  11  12  13  14  15  26  29  33  34 0
 6-311+G(2d,p)
 ****
 36  38  39  40  41 0
 6-311+G(2d,p)
 ****
 1  2  3  4  5  16  17  18  19  20  21  22  23  24  25 0
 3-21G
 ****
 27  28  30  31  32  35  37  42  43  44  45  46  47 0
 3-21G
 ****
 48  49 0
 3-21G
 ****


