%nproc=1
%NoSave
%Mem=1900MB
#P OB98/GEN NMR

erre ene a

0 1
  C       55.911      -8.364      20.113
  O       55.858      -7.346      21.096
  P       54.936      -7.576      22.385
  C       52.860      -6.546      21.208
  O       53.737      -6.512      22.321
  C       51.507      -5.932      21.575
  O       50.618      -5.995      20.419
  C       50.795      -6.640      22.737
  O       50.067      -5.644      23.469
  C       49.822      -7.554      22.017
  O       48.750      -7.990      22.838
  C       49.408      -6.646      20.854
  N       48.764      -7.375      19.764
  C       47.391      -7.572      19.850
  O       46.695      -7.173      20.783
  N       46.830      -8.311      18.843
  C       47.503      -8.933      17.833
  O       46.956      -9.678      17.028
  C       48.953      -8.689      17.792
  C       49.508      -7.934      18.742
  O       55.850      -7.047      23.587
  O       54.498      -8.986      22.595
  H       48.167      -7.224      22.989
  H       56.270      -7.795      24.050
  H       45.833      -8.454      18.884
  H       49.515      -9.151      16.990
  H       50.578      -7.754      18.747
  H       48.733      -5.858      21.213
  H       50.355      -8.443      21.659
  H       51.473      -7.182      23.402
  H       51.657      -4.871      21.810
  H       52.711      -7.582      20.900
  H       53.312      -6.008      20.367
  P       50.033      -5.763      25.070
  C       47.463      -6.008      25.476
  O       48.614      -5.194      25.545
  O       51.068      -4.608      25.476
  O       50.415      -7.114      25.580
  H       50.944      -3.796      24.959
  H       47.699      -7.057      25.672
  H       47.016      -5.918      24.483
  H       46.742      -5.663      26.220
  H       56.565      -8.062      19.322
  H       54.930      -8.532      19.721
  H       56.278      -9.267      20.554

 3  4  5  6  7  8  9  10  11  12  13  23  28  29  30  31  32 0
 6-311+G(2d,p)
 ****
 33  34 0
 6-311+G(2d,p)
 ****
 1  2  14  15  16  17  18  19  20  21  22  24  25  26 0
 3-21G
 ****
 27  35  36  37  38  39  40  41  42  43  44  45 0
 3-21G
 ****


