%nproc=1
%NoSave
%Mem=1900MB
#P OB98/GEN NMR

erre ene a

0 1
  C     -357.158    -184.656     170.960
  O     -357.938    -184.868     169.766
  P     -357.892    -186.306     169.046
  C     -356.484    -187.437     167.142
  O     -356.664    -186.324     168.009
  C     -355.050    -187.464     166.596
  O     -354.792    -186.300     165.783
  C     -353.970    -187.444     167.677
  O     -353.814    -188.713     168.293
  C     -352.753    -187.008     166.863
  O     -352.159    -188.131     166.190
  C     -353.380    -186.027     165.852
  N     -353.116    -184.627     166.176
  C     -351.842    -184.154     165.888
  O     -350.945    -184.862     165.422
  N     -351.617    -182.837     166.169
  C     -352.498    -181.979     166.777
  O     -352.231    -180.810     167.017
  C     -353.799    -182.562     167.138
  C     -354.041    -183.843     166.829
  O     -359.153    -186.227     168.058
  O     -357.999    -187.492     169.948
  H     -351.379    -187.785     165.703
  H     -359.500    -187.127     167.900
  H     -350.711    -182.457     165.932
  H     -354.526    -181.924     167.635
  H     -354.998    -184.284     167.092
  H     -352.989    -186.235     164.844
  H     -351.977    -186.563     167.490
  H     -354.198    -186.670     168.424
  H     -354.945    -188.357     165.960
  H     -357.190    -187.359     166.312
  H     -356.708    -188.360     167.697
  P     -353.982    -188.760     169.889
  C     -352.468    -187.873     171.837
  O     -352.578    -188.238     170.475
  O     -353.974    -190.345     170.152
  O     -355.207    -188.050     170.383
  H     -353.397    -190.815     169.521
  H     -353.118    -188.487     172.472
  H     -352.739    -186.815     171.952
  H     -351.435    -188.012     172.156
  H     -357.302    -183.654     171.307
  H     -356.122    -184.813     170.742
  H     -357.471    -185.344     171.717

 3  4  5  6  7  8  9  10  11  12  13  23  28  29  30  31  32 0
 6-311+G(2d,p)
 ****
 33  34 0
 6-311+G(2d,p)
 ****
 1  2  14  15  16  17  18  19  20  21  22  24  25  26 0
 3-21G
 ****
 27  35  36  37  38  39  40  41  42  43  44  45 0
 3-21G
 ****


