%nproc=1
%NoSave
%Mem=1900MB
#P OB98/GEN NMR

erre ene a

0 1
  C     -189.781      59.944     -63.944
  O     -190.406      60.346     -65.148
  P     -191.878      59.841     -65.515
  C     -192.202      61.477     -67.456
  O     -192.106      60.110     -67.081
  C     -192.631      61.624     -68.917
  O     -191.534      61.215     -69.777
  C     -193.858      60.789     -69.310
  O     -194.575      61.547     -70.290
  C     -193.234      59.569     -69.968
  O     -194.137      58.878     -70.822
  C     -192.054      60.218     -70.682
  N     -190.902      56.068     -73.435
  C     -192.055      56.751     -73.278
  N     -192.289      57.831     -72.506
  C     -191.173      58.200     -71.855
  C     -189.933      57.584     -71.891
  C     -189.809      56.473     -72.744
  N     -188.631      55.788     -72.943
  N     -189.053      58.226     -71.037
  C     -189.752      59.204     -70.502
  N     -191.017      59.267     -71.014
  O     -192.967      60.352     -64.631
  O     -191.770      58.247     -65.434
  H     -193.658      58.143     -71.248
  H     -192.217      57.925     -64.625
  H     -192.903      56.384     -73.851
  H     -189.395      59.889     -69.746
  H     -192.358      60.724     -71.605
  H     -192.897      58.868     -69.195
  H     -194.507      60.528     -68.469
  H     -192.814      62.688     -69.113
  H     -191.217      61.934     -67.325
  H     -188.623      55.094     -73.673
  H     -187.756      56.221     -72.655
  H     -192.913      61.994     -66.801
  P     -196.130      61.868     -70.070
  C     -196.054      63.872     -71.659
  O     -196.635      62.608     -71.397
  O     -196.465      62.554     -68.787
  O     -196.827      60.428     -70.169
  H     -197.722      60.470     -69.778
  H     -196.553      64.635     -71.055
  H     -196.192      64.112     -72.718
  H     -194.985      63.870     -71.431
  H     -188.808      60.385     -63.883
  H     -189.691      58.878     -63.927
  H     -190.371      60.265     -63.111

 3  4  5  6  7  8  9  10  11  12  22  25  29  30  31  32 0
 6-311+G(2d,p)
 ****
 33  36  37 0
 6-311+G(2d,p)
 ****
 1  2  13  14  15  16  17  18  19  20  21  23  24  26 0
 3-21G
 ****
 27  28  34  35  38  39  40  41  42  43  44  45  46  47  48 0
 3-21G
 ****


