%nproc=1
%NoSave
%Mem=1900MB
#P OB98/GEN NMR

erre ene a

0 1
  C     -281.701     364.372    -111.243
  O     -282.414     364.627    -110.037
  P     -283.971     364.258    -110.002
  C     -283.630     363.755    -107.482
  O     -284.415     364.403    -108.467
  C     -284.220     363.959    -106.092
  O     -285.629     363.650    -106.099
  C     -283.610     363.093    -105.005
  O     -282.401     363.623    -104.500
  C     -284.700     363.161    -103.937
  O     -284.599     364.398    -103.221
  C     -285.973     363.137    -104.785
  N     -289.994     360.196    -103.632
  C     -289.685     361.462    -103.295
  N     -288.591     362.171    -103.626
  C     -287.746     361.431    -104.370
  C     -287.921     360.111    -104.758
  C     -289.108     359.488    -104.381
  N     -289.439     358.204    -104.754
  N     -286.839     359.698    -105.514
  C     -286.037     360.734    -105.580
  N     -286.547     361.813    -104.908
  O     -283.976     362.676    -110.244
  O     -284.813     364.981    -111.005
  H     -283.701     364.440    -102.839
  H     -284.840     362.394    -110.600
  H     -290.408     361.977    -102.674
  H     -285.091     360.752    -106.104
  H     -286.753     363.800    -104.374
  H     -284.623     362.360    -103.201
  H     -283.497     362.048    -105.341
  H     -284.114     365.029    -105.830
  H     -282.613     364.154    -107.506
  H     -290.387     357.892    -104.590
  H     -288.880     357.751    -105.467
  H     -283.578     362.677    -107.719
  P     -281.253     362.558    -104.107
  C     -280.356     364.680    -102.886
  O     -280.412     363.266    -102.937
  O     -280.272     362.606    -105.371
  O     -281.759     361.189    -103.831
  H     -279.784     361.762    -105.452
  H     -280.034     364.980    -101.895
  H     -281.336     365.121    -103.083
  H     -279.631     365.045    -103.631
  H     -280.679     364.665    -111.122
  H     -282.141     364.931    -112.042
  H     -281.748     363.328    -111.471

 3  4  5  6  7  8  9  10  11  12  22  25  29  30  31  32 0
 6-311+G(2d,p)
 ****
 33  36  37 0
 6-311+G(2d,p)
 ****
 1  2  13  14  15  16  17  18  19  20  21  23  24  26 0
 3-21G
 ****
 27  28  34  35  38  39  40  41  42  43  44  45  46  47  48 0
 3-21G
 ****


