%nproc=1
%NoSave
%Mem=1900MB
#P OB98/GEN NMR

erre ene a

0 1
  C     1361.228     797.153     595.164
  O     1359.831     797.267     594.966
  H     1361.432     796.198     595.659
  H     1361.583     797.964     595.795
  H     1361.752     797.170     594.203
  P     1359.309     798.468     594.040
  C     1357.999     796.906     592.425
  O     1359.051     797.847     592.591
  C     1357.816     796.584     590.940
  O     1357.304     797.778     590.276
  C     1359.104     796.181     590.218
  O     1358.754     795.185     589.236
  C     1359.532     797.440     589.501
  O     1360.353     797.232     588.392
  C     1358.164     798.032     589.149
  N     1358.231     799.463     588.842
  C     1359.163     799.878     587.891
  O     1359.855     799.126     587.226
  N     1359.264     801.229     587.700
  C     1358.568     802.204     588.396
  O     1358.717     803.404     588.194
  C     1357.599     801.690     589.390
  C     1357.492     800.372     589.562
  O     1360.630     799.363     593.841
  O     1358.161     799.246     594.591
  H     1360.687     800.030     594.556
  H     1361.202     796.834     588.698
  H     1359.925     801.552     587.019
  H     1357.037     802.427     589.960
  H     1356.791     799.977     590.303
  H     1357.730     797.507     588.288
  H     1360.047     798.107     590.215
  H     1359.887     795.798     590.876
  H     1357.028     795.818     590.843
  H     1357.076     797.330     592.814
  H     1358.260     795.999     592.980
  P     1359.464     793.735     589.416
  C     1357.125     792.630     589.880
  O     1358.449     792.888     590.334
  O     1360.680     794.079     590.377
  O     1359.837     793.113     588.111
  H     1360.477     794.780     591.013
  H     1356.601     792.058     590.617
  H     1357.163     792.081     588.962
  H     1356.616     793.557     589.720

 6  7  8  9  10  11  12  13  14  15  16  27  31  32  33  34  35 0
 6-311+G(2d,p)
 ****
 36  37 0
 6-311+G(2d,p)
 ****
 1  2  3  4  5  17  18  19  20  21  22  23  24  25 0
 3-21G
 ****
 26  28  29  30  38  39  40  41  42  43  44  45 0
 3-21G
 ****


