%nproc=1
%NoSave
%Mem=1900MB
#P OB98/GEN NMR

erre ene a

0 1
  C      424.126    -367.002     301.700
  O      424.491    -365.635     301.449
  P      424.310    -364.492     302.562
  C      423.273    -362.588     301.155
  O      424.431    -363.052     301.851
  C      423.615    -361.465     300.179
  O      424.296    -361.987     299.017
  C      422.408    -360.698     299.645
  O      421.944    -359.764     300.613
  C      422.978    -360.087     298.372
  O      423.737    -358.901     298.676
  C      423.907    -361.198     297.873
  N      424.831    -364.690     294.247
  C      425.648    -364.062     295.121
  N      425.321    -363.135     296.055
  C      423.999    -362.899     296.047
  C      423.042    -363.458     295.213
  C      423.504    -364.401     294.268
  N      422.676    -365.033     293.369
  N      421.792    -362.949     295.482
  C      421.984    -362.100     296.482
  N      423.299    -362.042     296.862
  O      425.189    -364.657     303.761
  O      422.766    -364.569     302.979
  H      424.223    -358.652     297.866
  H      422.657    -364.266     303.903
  H      426.694    -364.331     295.065
  H      421.211    -361.526     296.963
  H      424.827    -360.791     297.443
  H      422.198    -359.800     297.653
  H      421.604    -361.395     299.387
  H      424.310    -360.782     300.679
  H      422.549    -362.230     301.893
  H      423.086    -365.659     292.700
  H      421.699    -364.778     293.346
  H      422.832    -363.442     300.616
  P      420.378    -359.580     300.875
  C      420.059    -357.202     299.953
  O      420.121    -358.018     301.110
  O      419.785    -360.494     301.892
  O      419.722    -359.829     299.429
  H      418.826    -360.193     299.539
  H      421.074    -356.981     299.611
  H      419.555    -356.259     300.208
  H      419.506    -357.701     299.157
  H      424.328    -367.591     300.830
  H      423.083    -367.056     301.932
  H      424.695    -367.377     302.525

 3  4  5  6  7  8  9  10  11  12  22  25  29  30  31  32 0
 6-311+G(2d,p)
 ****
 33  36  37 0
 6-311+G(2d,p)
 ****
 1  2  13  14  15  16  17  18  19  20  21  23  24  26 0
 3-21G
 ****
 27  28  34  35  38  39  40  41  42  43  44  45  46  47  48 0
 3-21G
 ****


