%nproc=1
%NoSave
%Mem=1900MB
#P OB98/GEN NMR

erre ene a

0 1
  C      -13.536      29.658    -146.019
  O      -12.801      28.666    -146.707
  H      -12.840      30.269    -145.435
  H      -14.254      29.195    -145.335
  H      -14.058      30.300    -146.732
  P      -13.642      27.590    -147.545
  C      -11.436      26.773    -148.652
  O      -12.626      26.421    -147.957
  C      -10.348      25.746    -148.357
  O       -9.977      25.812    -146.956
  C      -10.776      24.304    -148.590
  O      -10.749      23.941    -149.961
  C       -9.738      23.557    -147.773
  O       -8.525      23.353    -148.512
  C       -9.507      24.505    -146.578
  N      -10.159      24.016    -145.366
  C       -9.417      23.119    -144.604
  O       -8.282      22.745    -144.905
  N      -10.041      22.623    -143.490
  C      -11.319      22.895    -143.105
  O      -11.839      22.373    -142.121
  C      -12.062      23.838    -143.958
  C      -11.460      24.343    -145.036
  O      -13.934      28.347    -148.922
  O      -14.898      27.124    -146.885
  H      -14.869      28.621    -148.957
  H       -8.800      23.050    -149.402
  H       -9.519      21.974    -142.924
  H      -13.082      24.072    -143.681
  H      -11.987      25.031    -145.689
  H       -8.432      24.604    -146.373
  H      -10.104      22.577    -147.475
  H      -11.769      24.129    -148.154
  H       -9.463      25.989    -148.962
  H      -11.093      27.761    -148.319
  H      -11.651      26.823    -149.723
  P      -11.947      23.024    -150.515
  C      -10.619      22.593    -152.748
  O      -11.284      22.061    -151.613
  O      -12.771      24.102    -151.363
  O      -12.711      22.344    -149.433
  H      -12.202      24.824    -151.683
  H      -10.250      21.792    -153.353
  H       -9.801      23.204    -152.428
  H      -11.305      23.184    -153.318

 6  7  8  9  10  11  12  13  14  15  16  27  31  32  33  34  35 0
 6-311+G(2d,p)
 ****
 36  37 0
 6-311+G(2d,p)
 ****
 1  2  3  4  5  17  18  19  20  21  22  23  24  25 0
 3-21G
 ****
 26  28  29  30  38  39  40  41  42  43  44  45 0
 3-21G
 ****


