%nproc=1
%NoSave
%Mem=1900MB
#P OB98/GEN NMR

erre ene a

0 1
  C      -82.694     -98.000       4.505
  O      -82.609     -98.111       3.094
  P      -82.831     -96.832       2.148
  C      -80.328     -96.194       2.075
  O      -81.631     -95.834       2.513
  C      -79.763     -95.099       1.175
  O      -80.521     -95.041      -0.049
  C      -79.827     -93.698       1.769
  O      -78.814     -93.510       2.745
  C      -79.694     -92.846       0.513
  O      -78.319     -92.766       0.106
  C      -80.495     -93.671      -0.516
  N      -81.845     -93.161      -0.724
  C      -82.046     -92.371      -1.859
  O      -81.124     -92.135      -2.640
  N      -83.306     -91.888      -2.111
  C      -84.276     -92.149      -1.289
  N      -85.516     -91.702      -1.624
  C      -84.096     -92.930      -0.053
  C      -82.870     -93.404       0.162
  O      -84.191     -96.225       2.225
  O      -82.430     -97.337       0.689
  H      -78.305     -92.292      -0.748
  H      -83.182     -97.741       0.190
  H      -84.931     -93.111       0.608
  H      -82.660     -94.004       1.038
  H      -79.972     -93.687      -1.479
  H      -80.067     -91.824       0.636
  H      -80.806     -93.522       2.230
  H      -78.726     -95.362       0.925
  H      -85.626     -91.327      -2.560
  H      -80.397     -97.127       1.505
  H      -86.350     -92.097      -1.207
  H      -79.687     -96.359       2.946
  P      -79.012     -92.319       3.799
  C      -80.733     -93.402       5.408
  O      -80.509     -92.476       4.362
  O      -79.068     -91.016       2.874
  O      -77.945     -92.231       4.838
  H      -78.211     -90.550       2.893
  H      -81.725     -93.218       5.827
  H      -79.989     -93.282       6.200
  H      -80.702     -94.422       5.016
  H      -82.516     -98.957       4.949
  H      -83.670     -97.656       4.778
  H      -81.960     -97.303       4.853

 3  4  5  6  7  8  9  10  11  12  13  23  27  28  29  30  32 0
 6-311+G(2d,p)
 ****
 34  35 0
 6-311+G(2d,p)
 ****
 1  2  14  15  16  17  18  19  20  21  22  24  25  26 0
 3-21G
 ****
 31  33  36  37  38  39  40  41  42  43  44  45  46 0
 3-21G
 ****


