%nproc=1
%NoSave
%Mem=1900MB
#P OB98/GEN NMR

erre ene a

0 1
  C     -892.600    -847.445      -6.535
  O     -893.740    -847.707      -7.349
  P     -893.800    -848.854      -8.464
  C     -895.760    -850.168      -7.402
  O     -894.390    -850.191      -7.781
  C     -895.990    -851.081      -6.190
  O     -895.520    -850.440      -4.975
  C     -897.460    -851.401      -5.881
  O     -898.020    -852.313      -6.820
  C     -897.350    -851.944      -4.455
  O     -897.020    -853.319      -4.448
  C     -896.190    -851.105      -3.879
  N     -896.630    -850.119      -2.890
  C     -896.840    -850.600      -1.598
  O     -896.720    -851.796      -1.328
  N     -897.190    -849.709      -0.598
  C     -897.380    -848.452      -0.914
  N     -897.720    -847.616       0.118
  C     -897.320    -847.955      -2.293
  C     -896.940    -848.817      -3.220
  O     -892.500    -849.071      -9.165
  O     -894.960    -848.406      -9.492
  H     -894.770    -848.794     -10.378
  H     -896.830    -853.563      -3.513
  H     -897.560    -846.919      -2.510
  H     -896.850    -848.524      -4.269
  H     -895.440    -851.755      -3.436
  H     -898.310    -851.815      -3.928
  H     -898.040    -850.457      -5.890
  H     -895.430    -852.021      -6.351
  H     -897.750    -847.987       1.056
  H     -896.350    -850.537      -8.244
  H     -897.900    -846.630      -0.018
  H     -896.070    -849.137      -7.188
  P     -898.650    -851.705      -8.150
  C     -897.220    -853.112      -9.786
  O     -897.560    -851.833      -9.320
  O     -898.730    -850.146      -7.854
  O     -900.000    -852.253      -8.493
  H     -899.540    -849.778      -8.218
  H     -896.880    -853.026     -10.845
  H     -898.060    -853.806      -9.775
  H     -896.390    -853.534      -9.211
  H     -892.814    -846.632      -5.872
  H     -891.769    -847.188      -7.158
  H     -892.362    -848.318      -5.964

 3  4  5  6  7  8  9  10  11  12  13  24  27  28  29  30  32 0
 6-311+G(2d,p)
 ****
 34  35 0
 6-311+G(2d,p)
 ****
 1  2  14  15  16  17  18  19  20  21  22  23  25  26 0
 3-21G
 ****
 31  33  36  37  38  39  40  41  42  43  44  45  46 0
 3-21G
 ****


