%nproc=1
%NoSave
%Mem=1900MB
#P OB98/GEN NMR

erre ene a

0 1
  C     -199.884     620.468     540.190
  O     -198.492     620.762     540.127
  P     -198.035     622.260     539.786
  C     -197.608     623.432     542.123
  O     -197.102     622.823     540.956
  C     -196.552     624.390     542.689
  O     -197.153     625.283     543.658
  C     -195.403     623.674     543.396
  O     -194.380     623.293     542.494
  C     -194.964     624.712     544.412
  O     -194.166     625.724     543.776
  C     -196.324     625.297     544.855
  N     -197.055     624.607     545.946
  C     -196.520     624.593     547.231
  O     -195.454     625.108     547.545
  N     -197.271     623.950     548.183
  C     -198.547     623.486     548.035
  O     -199.194     622.978     548.937
  C     -199.120     623.664     546.692
  C     -198.364     624.197     545.728
  O     -199.379     623.107     539.936
  O     -197.414     622.426     538.438
  H     -193.416     625.281     543.348
  H     -199.642     623.485     539.071
  H     -196.865     623.861     549.104
  H     -200.147     623.356     546.542
  H     -198.782     624.330     544.732
  H     -196.212     626.345     545.166
  H     -194.334     624.266     545.183
  H     -195.777     622.805     543.947
  H     -196.158     624.999     541.863
  H     -197.873     622.681     542.867
  H     -198.527     623.979     541.888
  P     -194.219     621.758     542.075
  C     -194.874     621.743     539.595
  O     -193.808     621.774     540.524
  O     -195.352     620.853     542.439
  O     -192.851     621.319     542.788
  H     -193.030     620.881     543.652
  H     -194.481     621.917     538.592
  H     -195.606     622.524     539.830
  H     -195.361     620.761     539.618
  H     -200.020     619.433     540.426
  H     -200.337     620.680     539.244
  H     -200.342     621.070     540.947

 3  4  5  6  7  8  9  10  11  12  13  23  28  29  30  31  32 0
 6-311+G(2d,p)
 ****
 33  34 0
 6-311+G(2d,p)
 ****
 1  2  14  15  16  17  18  19  20  21  22  24  25  26  27 0
 3-21G
 ****
 35  36  37  38  39  40  41  42  43  44  45 0
 3-21G
 ****


