%nproc=1
%NoSave
%Mem=1900MB
#P OB98/GEN NMR

erre ene a

0 1
  C      148.730    -191.495    -108.119
  O      147.690    -190.882    -108.855
  H      149.017    -190.830    -107.299
  H      149.603    -191.662    -108.755
  H      148.391    -192.444    -107.696
  P      147.095    -191.663    -110.120
  C      145.118    -192.499    -108.685
  O      146.210    -192.858    -109.521
  C      143.949    -193.450    -108.915
  O      143.585    -193.474    -110.309
  C      144.238    -194.897    -108.516
  O      144.091    -195.065    -107.117
  C      143.174    -195.621    -109.323
  O      141.894    -195.476    -108.681
  C      143.198    -194.835    -110.645
  N      143.857    -198.145    -114.428
  C      142.772    -197.954    -113.594
  N      141.730    -198.796    -113.770
  N      142.721    -197.037    -112.664
  C      143.863    -196.317    -112.561
  C      145.008    -196.424    -113.316
  C      145.031    -197.406    -114.379
  O      145.966    -197.596    -115.150
  N      145.984    -195.567    -112.873
  C      145.414    -194.917    -111.879
  N      144.131    -195.346    -111.638
  O      148.087    -192.105    -111.154
  O      146.005    -190.660    -110.720
  H      141.963    -195.926    -107.819
  H      146.390    -190.094    -111.413
  H      143.842    -198.880    -115.114
  H      145.883    -194.128    -111.303
  H      142.213    -194.790    -111.121
  H      143.368    -196.689    -109.427
  H      141.831    -199.675    -114.259
  H      145.223    -195.224    -108.867
  H      140.946    -198.705    -113.137
  H      143.085    -193.058    -108.365
  H      144.832    -191.472    -108.938
  H      145.418    -192.532    -107.633
  P      144.906    -196.202    -106.329
  C      147.245    -195.176    -106.728
  O      146.348    -196.237    -107.028
  O      144.220    -197.522    -106.249
  O      145.227    -195.554    -104.907
  H      144.518    -195.704    -104.234
  H      148.163    -195.324    -107.258
  H      147.439    -195.160    -105.676
  H      146.808    -194.245    -107.024

 6  7  8  9  10  11  12  13  14  15  26  29  33  34 0
 6-311+G(2d,p)
 ****
 36  38  39  40  41 0
 6-311+G(2d,p)
 ****
 1  2  3  4  5  16  17  18  19  20  21  22  23  24  25 0
 3-21G
 ****
 27  28  30  31  32  35  37  42  43  44  45  46  47 0
 3-21G
 ****
 48  49 0
 3-21G
 ****


