%nproc=1
%NoSave
%Mem=1900MB
#P OB98/GEN NMR

erre ene a

0 1
  C       66.016     -65.170     295.261
  O       65.181     -64.332     296.072
  P       63.878     -63.707     295.373
  C       64.962     -61.427     294.778
  O       64.357     -62.620     294.288
  C       64.586     -60.217     293.907
  O       63.145     -60.107     293.753
  C       65.076     -58.877     294.478
  O       65.396     -58.028     293.372
  C       63.837     -58.331     295.167
  O       63.934     -56.922     295.379
  C       62.759     -58.794     294.196
  N       58.407     -56.183     294.835
  C       59.546     -55.896     294.165
  N       60.672     -56.641     294.060
  C       60.524     -57.807     294.715
  C       59.437     -58.230     295.445
  C       58.333     -57.361     295.502
  N       57.177     -57.637     296.207
  N       59.679     -59.470     296.009
  C       60.903     -59.780     295.619
  N       61.441     -58.821     294.812
  O       63.233     -62.816     296.539
  O       62.914     -64.729     294.867
  H       63.050     -56.600     295.641
  H       62.421     -63.244     296.873
  H       59.557     -54.943     293.646
  H       61.439     -60.672     295.901
  H       62.683     -58.141     293.314
  H       63.718     -58.817     296.153
  H       65.939     -58.947     295.149
  H       65.010     -60.363     292.910
  H       66.053     -61.534     294.791
  H       56.453     -56.946     296.219
  H       57.127     -58.493     296.746
  H       64.660     -61.274     295.822
  P       66.951     -57.814     293.054
  C       67.466     -55.574     294.266
  O       67.553     -56.990     294.293
  O       66.950     -56.755     291.851
  O       67.676     -59.069     292.695
  H       67.763     -56.849     291.319
  H       67.217     -55.216     295.270
  H       66.707     -55.217     293.568
  H       68.439     -55.164     293.974
  H       66.843     -65.519     295.843
  H       66.379     -64.610     294.425
  H       65.448     -66.007     294.910

 3  4  5  6  7  8  9  10  11  12  22  25  29  30  31  32 0
 6-311+G(2d,p)
 ****
 33  36  37 0
 6-311+G(2d,p)
 ****
 1  2  13  14  15  16  17  18  19  20  21  23  24  26 0
 3-21G
 ****
 27  28  34  35  38  39  40  41  42  43  44  45  46  47  48 0
 3-21G
 ****


