%nproc=1
%NoSave
%Mem=1900MB
#P OB98/GEN NMR

erre ene a

0 1
  C      680.587    -220.267     180.608
  O      679.514    -219.429     180.233
  H      680.213    -221.280     180.736
  H      681.006    -219.922     181.556
  H      681.365    -220.273     179.834
  P      679.890    -217.970     179.668
  C      678.606    -216.617     181.483
  O      678.696    -216.990     180.109
  C      677.840    -215.308     181.632
  O      678.562    -214.226     180.995
  C      676.448    -215.314     181.002
  O      675.486    -215.898     181.875
  C      676.205    -213.825     180.824
  O      675.849    -213.245     182.101
  C      677.588    -213.328     180.392
  N      676.200    -211.197     175.994
  C      675.703    -211.000     177.271
  N      674.689    -210.111     177.399
  N      676.160    -211.620     178.331
  C      677.160    -212.493     178.051
  C      677.722    -212.774     176.831
  C      677.229    -212.072     175.672
  O      677.634    -212.200     174.521
  N      678.716    -213.716     176.945
  C      678.731    -214.018     178.230
  N      677.803    -213.301     178.952
  O      679.688    -218.137     178.088
  O      681.269    -217.507     179.990
  H      676.402    -213.687     182.775
  H      680.557    -218.238     177.659
  H      675.807    -210.702     175.210
  H      679.393    -214.741     178.687
  H      677.804    -212.317     180.756
  H      675.381    -213.606     180.139
  H      674.274    -209.622     176.622
  H      676.448    -215.808     180.016
  H      674.315    -209.951     178.324
  H      677.778    -215.069     182.705
  H      679.622    -216.491     181.881
  H      678.095    -217.411     182.035
  P      674.722    -217.223     181.387
  C      672.380    -216.205     181.849
  O      673.304    -217.243     182.134
  O      675.548    -218.386     182.103
  O      674.666    -217.421     179.911
  H      676.032    -218.921     181.442
  H      671.488    -216.355     182.420
  H      672.142    -216.216     180.806
  H      672.813    -215.261     182.106

 6  7  8  9  10  11  12  13  14  15  26  29  33  34 0
 6-311+G(2d,p)
 ****
 36  38  39  40  41 0
 6-311+G(2d,p)
 ****
 1  2  3  4  5  16  17  18  19  20  21  22  23  24  25 0
 3-21G
 ****
 27  28  30  31  32  35  37  42  43  44  45  46  47 0
 3-21G
 ****
 48  49 0
 3-21G
 ****


