%nproc=1
%NoSave
%Mem=1900MB
#P OB98/GEN NMR

erre ene a

0 1
  C       59.424     -87.733      67.021
  O       59.175     -88.744      68.000
  P       60.448     -89.540      68.565
  C       61.307     -91.984      68.513
  O       60.441     -91.018      67.936
  C       61.100     -93.367      67.886
  O       59.947     -94.035      68.474
  C       60.865     -93.327      66.373
  O       61.445     -94.512      65.811
  C       59.356     -93.423      66.258
  O       58.954     -93.848      64.958
  C       59.057     -94.395      67.398
  N       54.217     -95.153      65.962
  C       55.389     -95.312      65.310
  N       56.639     -95.065      65.757
  C       56.608     -94.651      67.037
  C       55.492     -94.432      67.827
  C       54.244     -94.700      67.239
  N       53.048     -94.513      67.892
  N       55.862     -93.959      69.070
  C       57.177     -93.890      69.026
  N       57.676     -94.326      67.831
  O       60.074     -89.783      70.103
  O       61.735     -88.795      68.428
  H       57.977     -93.926      64.952
  H       60.619     -89.209      70.672
  H       55.314     -95.682      64.291
  H       57.811     -93.529      69.821
  H       59.256     -95.439      67.120
  H       58.905     -92.441      66.454
  H       61.269     -92.442      65.871
  H       61.981     -93.980      68.106
  H       61.128     -92.050      69.590
  H       52.195     -94.703      67.388
  H       53.052     -94.133      68.826
  H       62.344     -91.647      68.401
  P       62.234     -94.335      64.428
  C       61.538     -94.113      61.939
  O       61.118     -94.234      63.284
  O       62.900     -95.771      64.186
  O       63.251     -93.241      64.442
  H       63.695     -95.684      63.630
  H       60.888     -94.729      61.310
  H       62.573     -94.440      61.798
  H       61.446     -93.071      61.628
  H       58.498     -87.283      66.730
  H       59.891     -88.173      66.165
  H       60.069     -86.987      67.435

 3  4  5  6  7  8  9  10  11  12  22  25  29  30  31  32 0
 6-311+G(2d,p)
 ****
 33  36  37 0
 6-311+G(2d,p)
 ****
 1  2  13  14  15  16  17  18  19  20  21  23  24  26 0
 3-21G
 ****
 27  28  34  35  38  39  40  41  42  43  44  45  46  47  48 0
 3-21G
 ****


