%nproc=1
%NoSave
%Mem=1900MB
#P OB98/GEN NMR

erre ene a

0 1
  C      197.041    -394.323      84.755
  O      196.546    -394.881      85.956
  H      197.413    -393.316      84.963
  H      196.235    -394.255      84.017
  H      197.860    -394.928      84.360
  P      196.114    -396.428      85.908
  C      196.439    -396.607      88.508
  O      195.594    -396.778      87.384
  C      195.613    -396.358      89.771
  O      194.925    -395.091      89.632
  C      194.561    -397.436      90.040
  O      194.450    -397.615      91.454
  C      193.279    -396.813      89.510
  O      192.118    -397.384      90.106
  C      193.514    -395.327      89.829
  N      192.696    -394.444      89.000
  C      191.500    -393.990      89.559
  O      191.168    -394.345      90.692
  N      190.683    -393.181      88.813
  C      191.002    -392.899      87.588
  N      190.137    -392.113      86.891
  C      192.233    -393.393      86.942
  C      193.031    -394.143      87.701
  O      197.534    -397.162      85.822
  O      195.174    -396.771      84.802
  H      191.331    -396.882      89.801
  H      198.195    -396.800      86.434
  H      192.448    -393.141      85.914
  H      193.958    -394.541      87.309
  H      193.287    -395.121      90.884
  H      193.209    -396.963      88.428
  H      194.798    -398.390      89.562
  H      196.297    -396.256      90.620
  H      189.294    -391.816      87.364
  H      197.121    -395.766      88.348
  H      190.255    -391.876      85.918
  H      197.041    -397.515      88.620
  P      195.506    -398.544      92.215
  C      196.484    -397.056      94.092
  O      195.584    -398.105      93.755
  O      196.822    -398.719      91.537
  O      194.737    -399.953      92.302
  H      195.388    -400.660      92.123
  H      196.434    -396.867      95.144
  H      196.214    -396.169      93.558
  H      197.481    -397.342      93.828

 6  7  8  9  10  11  12  13  14  15  16  26  30  31  32  33  35 0
 6-311+G(2d,p)
 ****
 37  38 0
 6-311+G(2d,p)
 ****
 1  2  3  4  5  17  18  19  20  21  22  23  24  25 0
 3-21G
 ****
 27  28  29  34  36  39  40  41  42  43  44  45  46 0
 3-21G
 ****


