%nproc=1
%NoSave
%Mem=1900MB
#P OB98/GEN NMR

erre ene a

0 1
  C       82.215     491.614      49.976
  O       81.901     490.679      50.987
  H       81.478     492.422      49.965
  H       83.201     492.042      50.184
  H       82.242     491.120      48.999
  P       80.470     489.959      50.886
  C       79.916     490.962      53.223
  O       79.970     489.800      52.404
  C       79.922     490.546      54.691
  O       78.694     489.852      55.015
  C       81.048     489.582      55.050
  O       82.279     490.245      55.291
  C       80.496     488.962      56.323
  O       80.653     489.882      57.417
  C       79.010     488.798      55.968
  N       76.176     484.558      56.424
  C       76.224     485.697      57.153
  N       76.990     486.788      56.954
  C       77.765     486.634      55.868
  C       77.817     485.536      55.022
  C       76.978     484.452      55.341
  N       76.953     483.278      54.617
  N       78.749     485.739      54.023
  C       79.231     486.943      54.255
  N       78.690     487.513      55.375
  O       80.828     488.457      50.466
  O       79.479     490.600      49.973
  H       81.604     489.901      57.640
  H       80.029     487.988      50.160
  H       75.558     485.729      58.013
  H       79.977     487.444      53.647
  H       78.351     488.930      56.839
  H       81.012     488.040      56.605
  H       81.163     488.794      54.293
  H       79.967     491.448      55.308
  H       78.997     491.514      53.004
  H       76.428     482.511      55.011
  H       77.644     483.135      53.901
  H       80.780     491.599      53.011
  P       83.628     489.384      55.130
  C       84.390     488.839      57.551
  O       84.522     489.697      56.424
  O       84.396     490.155      53.954
  O       83.412     487.942      54.817
  H       84.930     489.533      53.424
  H       85.044     489.171      58.330
  H       84.648     487.839      57.270
  H       83.379     488.862      57.900

 6  7  8  9  10  11  12  13  14  15  25  28  32  33  34  35 0
 6-311+G(2d,p)
 ****
 36  39  40 0
 6-311+G(2d,p)
 ****
 1  2  3  4  5  16  17  18  19  20  21  22  23  24 0
 3-21G
 ****
 26  27  29  30  31  37  38  41  42  43  44  45  46  47 0
 3-21G
 ****
 48 0
 3-21G
 ****


