%nproc=1
%NoSave
%Mem=1900MB
#P OB98/GEN NMR

erre ene a

0 1
  C      131.013    -296.036    -307.363
  O      129.744    -296.643    -307.191
  P      129.577    -297.916    -306.226
  C      129.893    -299.715    -308.040
  O      130.423    -299.131    -306.847
  C      130.613    -301.031    -308.337
  O      132.004    -300.801    -308.681
  C      130.641    -302.013    -307.181
  O      129.376    -302.612    -306.958
  C      131.736    -302.973    -307.638
  O      131.217    -303.928    -308.578
  C      132.722    -302.010    -308.340
  N      133.892    -301.726    -307.522
  C      135.002    -302.539    -307.723
  O      134.939    -303.502    -308.503
  N      136.162    -302.262    -307.038
  C      136.166    -301.326    -306.132
  N      137.358    -301.057    -305.530
  C      134.969    -300.545    -305.772
  C      133.875    -300.777    -306.511
  O      128.174    -298.255    -305.854
  O      130.437    -297.527    -304.920
  H      129.881    -297.673    -304.130
  H      131.969    -304.467    -308.872
  H      135.009    -299.829    -304.964
  H      132.954    -300.236    -306.335
  H      133.053    -302.436    -309.290
  H      132.162    -303.531    -306.806
  H      130.972    -301.495    -306.271
  H      130.117    -301.490    -309.222
  H      138.167    -301.601    -305.816
  H      130.035    -299.016    -308.866
  H      137.545    -300.166    -305.077
  H      128.818    -299.887    -307.909
  P      129.097    -303.193    -305.487
  C      129.536    -305.687    -306.053
  O      129.958    -304.545    -305.330
  O      127.587    -303.713    -305.566
  O      129.279    -302.194    -304.373
  H      127.137    -303.548    -304.714
  H      130.382    -306.376    -306.124
  H      129.204    -305.425    -307.062
  H      128.725    -306.172    -305.512
  H      130.925    -295.210    -308.037
  H      131.699    -296.752    -307.764
  H      131.373    -295.688    -306.417

 3  4  5  6  7  8  9  10  11  12  13  24  27  28  29  30  32 0
 6-311+G(2d,p)
 ****
 34  35 0
 6-311+G(2d,p)
 ****
 1  2  14  15  16  17  18  19  20  21  22  23  25  26 0
 3-21G
 ****
 31  33  36  37  38  39  40  41  42  43  44  45  46 0
 3-21G
 ****


