%nproc=1
%NoSave
%Mem=1900MB
#P OB98/GEN NMR

erre ene a

0 1
  C        8.157     235.585    -807.346
  O        9.445     235.103    -806.956
  P       10.690     236.126    -807.057
  C       12.568     234.754    -808.242
  O       12.056     235.270    -807.025
  C       13.246     233.406    -808.009
  O       14.363     233.509    -807.081
  C       12.328     232.345    -807.394
  O       11.523     231.733    -808.394
  C       13.340     231.365    -806.843
  O       13.832     230.523    -807.901
  C       14.459     232.283    -806.329
  N       16.700     231.711    -801.755
  C       17.030     231.268    -803.002
  N       16.368     231.442    -804.156
  C       15.277     232.193    -803.973
  C       14.815     232.715    -802.768
  C       15.577     232.454    -801.631
  N       15.237     232.943    -800.382
  N       13.642     233.416    -802.974
  C       13.404     233.333    -804.277
  N       14.361     232.585    -804.915
  O       10.672     236.854    -805.625
  O       10.587     237.109    -808.171
  H       14.571     229.997    -807.540
  H       10.956     237.773    -805.728
  H       17.958     230.666    -803.058
  H       12.569     233.778    -804.787
  H       15.444     231.854    -806.515
  H       12.920     230.703    -806.086
  H       11.725     232.779    -806.590
  H       13.645     233.049    -808.980
  H       13.281     235.464    -808.678
  H       15.866     232.712    -799.606
  H       14.410     233.502    -800.280
  H       11.754     234.660    -808.963
  P       10.040     232.312    -808.590
  C        9.369     230.033    -809.664
  O        9.383     231.446    -809.765
  O       10.302     233.754    -809.267
  O        9.229     232.432    -807.340
  H        9.589     234.374    -809.013
  H        8.636     229.637    -810.367
  H        9.090     229.723    -808.641
  H       10.356     229.641    -809.897
  H        7.434     234.805    -807.228
  H        8.186     235.892    -808.371
  H        7.887     236.418    -806.731

 3  4  5  6  7  8  9  10  11  12  22  25  29  30  31  32 0
 6-311+G(2d,p)
 ****
 33  36  37 0
 6-311+G(2d,p)
 ****
 1  2  13  14  15  16  17  18  19  20  21  23  24  26 0
 3-21G
 ****
 27  28  34  35  38  39  40  41  42  43  44  45  46  47  48 0
 3-21G
 ****


