%nproc=1
%NoSave
%Mem=1900MB
#P OB98/GEN NMR

erre ene a

0 1
  C       46.666    -451.222     165.863
  O       48.017    -451.101     165.470
  H       46.442    -452.279     166.026
  H       46.011    -450.843     165.075
  H       46.481    -450.679     166.793
  P       48.658    -449.638     165.346
  C       50.201    -449.983     167.387
  O       49.150    -449.221     166.813
  C       50.505    -449.504     168.811
  O       49.283    -449.599     169.602
  C       51.581    -450.332     169.541
  O       52.242    -449.447     170.456
  C       50.715    -451.341     170.276
  O       51.430    -452.066     171.244
  C       49.597    -450.406     170.758
  N       48.402    -451.071     171.264
  C       48.321    -451.298     172.635
  O       49.184    -450.973     173.451
  N       47.183    -451.932     173.066
  C       46.143    -452.336     172.284
  O       45.136    -452.872     172.731
  C       46.293    -452.075     170.845
  C       47.393    -451.461     170.406
  O       47.821    -448.620     164.645
  O       50.037    -449.896     164.572
  H       49.936    -449.647     163.632
  H       52.212    -452.481     170.819
  H       47.106    -452.097     174.057
  H       45.489    -452.397     170.193
  H       47.524    -451.248     169.352
  H       49.982    -449.731     171.527
  H       50.329    -452.083     169.572
  H       52.316    -450.774     168.862
  H       50.780    -448.442     168.776
  H       51.091    -449.862     166.760
  H       49.913    -451.041     167.399
  P       53.571    -448.628     170.086
  C       52.410    -446.314     170.024
  O       53.133    -447.298     169.296
  O       54.604    -449.433     169.371
  O       54.130    -448.076     171.479
  H       55.096    -447.943     171.415
  H       52.185    -445.489     169.381
  H       53.002    -445.973     170.848
  H       51.499    -446.739     170.391

 6  7  8  9  10  11  12  13  14  15  16  27  31  32  33  34  35 0
 6-311+G(2d,p)
 ****
 36  37 0
 6-311+G(2d,p)
 ****
 1  2  3  4  5  17  18  19  20  21  22  23  24  25 0
 3-21G
 ****
 26  28  29  30  38  39  40  41  42  43  44  45 0
 3-21G
 ****


