%nproc=1
%NoSave
%Mem=1900MB
#P OB98/GEN NMR

erre ene a

0 1
  C     -502.967     978.660     442.089
  O     -502.633     977.307     441.859
  P     -502.392     976.298     443.092
  C     -504.906     975.767     443.447
  O     -503.617     975.274     443.042
  C     -505.985     974.723     443.116
  O     -506.066     974.543     441.685
  C     -505.718     973.335     443.675
  O     -506.000     973.280     445.070
  C     -506.611     972.484     442.769
  O     -507.989     972.559     443.242
  C     -506.483     973.199     441.420
  N     -505.554     972.506     440.516
  C     -505.844     971.204     440.186
  O     -506.860     970.638     440.630
  N     -505.017     970.533     439.324
  C     -503.956     971.108     438.842
  N     -503.197     970.436     437.938
  C     -503.561     972.484     439.217
  C     -504.406     973.131     440.037
  O     -502.192     976.970     444.430
  O     -501.153     975.396     442.644
  H     -507.975     972.417     444.199
  H     -500.268     975.778     442.874
  H     -502.672     972.933     438.812
  H     -504.200     974.132     440.363
  H     -507.468     973.269     440.938
  H     -506.344     971.411     442.773
  H     -504.652     973.043     443.521
  H     -506.942     975.108     443.482
  H     -503.612     969.561     437.574
  H     -505.117     976.683     442.894
  H     -502.556     970.906     437.336
  H     -504.890     975.980     444.516
  P     -505.527     971.967     445.885
  C     -503.539     973.151     447.052
  O     -504.798     972.517     447.205
  O     -504.334     971.389     444.968
  O     -506.608     970.967     446.108
  H     -504.653     970.633     444.424
  H     -503.300     973.668     447.999
  H     -503.583     973.919     446.261
  H     -502.765     972.430     446.828
  H     -503.085     979.162     441.152
  H     -502.186     979.130     442.650
  H     -503.883     978.713     442.640

 3  4  5  6  7  8  9  10  11  12  13  23  27  28  29  30  32 0
 6-311+G(2d,p)
 ****
 34  35 0
 6-311+G(2d,p)
 ****
 1  2  14  15  16  17  18  19  20  21  22  24  25  26 0
 3-21G
 ****
 31  33  36  37  38  39  40  41  42  43  44  45  46 0
 3-21G
 ****


