%nproc=1
%NoSave
%Mem=1900MB
#P OB98/GEN NMR

erre ene a

0 1
  C     -416.639    -599.048    -671.606
  O     -415.644    -598.556    -672.498
  P     -414.894    -597.193    -672.121
  C     -412.373    -597.681    -672.732
  O     -413.615    -597.099    -673.098
  C     -411.625    -598.167    -673.969
  O     -412.288    -599.371    -674.485
  C     -411.576    -597.152    -675.141
  O     -410.299    -597.321    -675.781
  C     -412.701    -597.615    -676.039
  O     -412.540    -597.175    -677.373
  C     -412.588    -599.149    -675.867
  N     -413.823    -599.851    -676.241
  C     -414.138    -599.935    -677.596
  O     -413.455    -599.426    -678.490
  N     -415.300    -600.599    -677.894
  C     -416.191    -601.131    -676.992
  O     -417.216    -601.701    -677.328
  C     -415.825    -600.981    -675.582
  C     -414.668    -600.368    -675.281
  O     -414.263    -597.560    -670.703
  O     -415.772    -595.986    -672.133
  H     -413.981    -598.486    -670.639
  H     -413.307    -597.490    -677.895
  H     -415.525    -600.706    -678.880
  H     -416.501    -601.356    -674.839
  H     -414.387    -600.236    -674.230
  H     -411.751    -599.535    -676.456
  H     -413.659    -597.241    -675.654
  H     -411.691    -596.123    -674.777
  H     -410.610    -598.471    -673.671
  H     -412.562    -598.520    -672.059
  H     -411.776    -596.939    -672.179
  P     -409.289    -596.065    -675.786
  C     -407.083    -597.420    -676.168
  O     -408.019    -596.485    -676.663
  O     -408.730    -596.127    -674.281
  O     -409.926    -594.752    -676.114
  H     -408.449    -597.025    -674.026
  H     -406.501    -597.823    -677.017
  H     -407.584    -598.264    -675.667
  H     -406.394    -596.929    -675.475
  H     -417.046    -599.959    -671.993
  H     -417.420    -598.323    -671.507
  H     -416.200    -599.232    -670.648

 3  4  5  6  7  8  9  10  11  12  13  24  28  29  30  31  32 0
 6-311+G(2d,p)
 ****
 33  34 0
 6-311+G(2d,p)
 ****
 1  2  14  15  16  17  18  19  20  21  22  23  25  26  27 0
 3-21G
 ****
 35  36  37  38  39  40  41  42  43  44  45 0
 3-21G
 ****


