%nproc=1
%NoSave
%Mem=1900MB
#P OB98/GEN NMR

erre ene a

0 1
  C      452.893     -35.276    -899.106
  O      453.415     -34.440    -898.096
  P      454.823     -33.728    -898.386
  C      456.160     -35.801    -897.576
  O      455.880     -34.415    -897.396
  C      457.407     -36.193    -896.786
  O      458.556     -35.508    -897.296
  C      457.331     -35.822    -895.306
  O      456.521     -36.746    -894.606
  C      458.809     -35.869    -894.916
  O      459.201     -37.204    -894.546
  C      459.513     -35.429    -896.216
  N      460.082     -34.091    -896.106
  C      461.447     -33.982    -896.416
  O      462.095     -34.979    -896.736
  N      462.046     -32.751    -896.316
  C      461.345     -31.725    -895.946
  N      461.989     -30.526    -895.866
  C      459.917     -31.796    -895.596
  C      459.359     -33.003    -895.696
  O      454.625     -32.263    -897.756
  O      455.211     -33.671    -899.826
  H      459.032     -37.759    -895.336
  H      455.198     -31.613    -898.196
  H      459.381     -30.915    -895.286
  H      458.300     -33.150    -895.456
  H      460.327     -36.115    -896.466
  H      459.023     -35.237    -894.056
  H      456.954     -34.803    -895.186
  H      457.557     -37.274    -896.896
  H      462.975     -30.509    -896.106
  H      456.351     -35.996    -898.636
  H      461.537     -29.661    -895.616
  H      455.292     -36.386    -897.266
  P      455.597     -36.172    -893.426
  C      457.579     -36.033    -891.784
  O      456.330     -36.642    -892.077
  O      454.335     -37.149    -893.476
  O      455.210     -34.733    -893.496
  H      453.644     -36.843    -892.856
  H      457.874     -36.320    -890.774
  H      457.484     -34.939    -891.826
  H      458.328     -36.377    -892.486
  H      451.957     -35.683    -898.784
  H      453.580     -36.073    -899.301
  H      452.745     -34.706    -900.000

 3  4  5  6  7  8  9  10  11  12  13  21  23  27  28  29  30  32 0
 6-311+G(2d,p)
 ****
 34  35 0
 6-311+G(2d,p)
 ****
 1  2  14  15  16  17  18  19  20  22  24  25  26 0
 3-21G
 ****
 31  33  36  37  38  39  40  41  42  43  44  45  46 0
 3-21G
 ****


