%nproc=1
%NoSave
%Mem=1900MB
#P OB98/GEN NMR

erre ene a

0 1
  C     -270.904    -483.280    -299.308
  O     -270.007    -482.166    -299.227
  P     -269.492    -481.365    -300.521
  C     -270.703    -479.105    -300.218
  O     -270.613    -480.312    -300.968
  C     -270.903    -477.889    -301.130
  O     -272.148    -477.985    -301.845
  C     -270.962    -476.551    -300.401
  O     -269.668    -476.130    -300.003
  C     -271.618    -475.666    -301.460
  O     -270.654    -475.197    -302.417
  C     -272.611    -476.649    -302.117
  N     -273.980    -476.453    -301.653
  C     -274.895    -475.975    -302.602
  O     -274.525    -475.689    -303.739
  N     -276.210    -475.809    -302.221
  C     -276.557    -476.030    -300.988
  N     -277.872    -475.856    -300.671
  C     -275.608    -476.447    -299.940
  C     -274.348    -476.636    -300.341
  O     -269.002    -482.245    -301.624
  O     -268.299    -480.433    -299.984
  H     -270.198    -474.435    -302.006
  H     -267.648    -480.305    -300.697
  H     -275.931    -476.592    -298.919
  H     -273.585    -476.957    -299.639
  H     -272.595    -476.538    -303.211
  H     -272.098    -474.783    -301.028
  H     -271.619    -476.625    -299.529
  H     -270.092    -477.885    -301.874
  H     -278.499    -475.580    -301.412
  H     -269.772    -478.984    -299.650
  H     -278.244    -476.004    -299.744
  H     -271.536    -479.188    -299.510
  P     -269.461    -475.431    -298.572
  C     -269.270    -477.697    -297.374
  O     -269.960    -476.458    -297.454
  O     -270.004    -474.045    -298.454
  O     -267.872    -475.440    -298.376
  H     -267.614    -474.656    -297.848
  H     -269.408    -478.114    -296.377
  H     -268.201    -477.557    -297.560
  H     -269.685    -478.382    -298.113
  H     -271.104    -483.649    -298.324
  H     -270.458    -484.055    -299.896
  H     -271.820    -482.968    -299.765

 3  4  5  6  7  8  9  10  11  12  13  23  27  28  29  30  32 0
 6-311+G(2d,p)
 ****
 34  35 0
 6-311+G(2d,p)
 ****
 1  2  14  15  16  17  18  19  20  21  22  24  25  26 0
 3-21G
 ****
 31  33  36  37  38  39  40  41  42  43  44  45  46 0
 3-21G
 ****


