%nproc=1
%NoSave
%Mem=1900MB
#P OB98/GEN NMR

erre ene a

0 1
  C     -309.081    -335.266    -326.666
  O     -309.190    -334.117    -327.519
  P     -309.314    -334.357    -329.099
  C     -308.041    -332.210    -329.827
  O     -309.265    -332.931    -329.825
  C     -308.250    -330.806    -330.409
  O     -308.763    -329.889    -329.405
  C     -306.975    -330.171    -330.944
  O     -306.691    -330.614    -332.264
  C     -307.370    -328.700    -330.971
  O     -308.166    -328.421    -332.135
  C     -308.216    -328.577    -329.695
  N     -305.527    -324.713    -327.824
  C     -306.177    -324.840    -329.035
  N     -306.111    -323.778    -329.868
  N     -306.837    -325.913    -329.393
  C     -306.839    -326.883    -328.458
  C     -306.227    -326.877    -327.220
  C     -305.491    -325.698    -326.834
  O     -304.875    -325.533    -325.788
  N     -306.445    -328.058    -326.556
  C     -307.202    -328.765    -327.373
  N     -307.452    -328.104    -328.549
  O     -310.853    -334.788    -329.273
  O     -308.386    -335.396    -329.639
  H     -308.069    -327.470    -332.323
  H     -310.946    -335.362    -330.056
  H     -305.024    -323.871    -327.598
  H     -307.583    -329.754    -327.153
  H     -309.062    -327.883    -329.825
  H     -306.498    -328.038    -331.013
  H     -305.661    -322.905    -329.632
  H     -306.138    -330.326    -330.260
  H     -306.608    -323.840    -330.747
  H     -308.991    -330.882    -331.218
  H     -307.281    -332.742    -330.404
  H     -307.653    -332.168    -328.800
  P     -305.195    -330.412    -332.819
  C     -306.039    -329.166    -334.927
  O     -305.320    -330.258    -334.398
  O     -304.544    -331.861    -332.606
  O     -304.413    -329.348    -332.114
  H     -303.588    -331.771    -332.425
  H     -305.881    -329.130    -336.007
  H     -305.690    -328.223    -334.492
  H     -307.106    -329.292    -334.734
  H     -309.006    -334.948    -325.647
  H     -308.208    -335.825    -326.930
  H     -309.948    -335.882    -326.785

 3  4  5  6  7  8  9  10  11  12  23  26  30  31 0
 6-311+G(2d,p)
 ****
 33  35  36  37  38 0
 6-311+G(2d,p)
 ****
 1  2  13  14  15  16  17  18  19  20  21  22  24  25 0
 3-21G
 ****
 27  28  29  32  34  39  40  41  42  43  44  45  46  47  48  49 0
 3-21G
 ****


