%nproc=1
%NoSave
%Mem=1900MB
#P OB98/GEN NMR

erre ene a

0 1
  C       49.848     147.429     672.328
  O       48.768     148.081     671.686
  H       49.830     147.687     673.391
  H       50.800     147.755     671.903
  H       49.749     146.344     672.231
  P       48.581     147.863     670.109
  C       49.053     150.259     669.259
  O       49.544     148.927     669.399
  C       49.568     150.873     667.966
  O       50.894     151.411     668.157
  C       49.664     149.888     666.802
  O       48.393     149.705     666.199
  C       50.654     150.613     665.902
  O       49.989     151.689     665.222
  C       51.650     151.176     666.938
  N       56.552     150.193     666.097
  C       55.737     151.161     665.539
  N       56.290     151.944     664.591
  N       54.473     151.326     665.864
  C       54.041     150.418     666.776
  C       54.754     149.410     667.385
  C       56.156     149.274     667.055
  O       56.927     148.446     667.536
  N       53.958     148.651     668.204
  C       52.768     149.227     668.120
  N       52.763     150.294     667.252
  O       47.170     147.888     669.597
  O       49.300     146.463     669.823
  H       50.677     152.190     664.744
  H       48.668     145.725     669.871
  H       57.509     150.107     665.784
  H       51.885     148.909     668.665
  H       52.077     152.136     666.622
  H       51.102     149.970     665.151
  H       57.141     151.685     664.109
  H       50.110     148.934     667.114
  H       55.689     152.625     664.135
  H       48.916     151.720     667.711
  H       49.406     150.828     670.125
  H       47.959     150.259     669.259
  P       48.049     148.365     665.377
  C       47.821     149.264     662.961
  O       48.658     148.614     663.915
  O       46.611     147.970     665.400
  O       49.030     147.261     665.979
  H       48.660     146.786     666.768
  H       48.348     149.366     662.035
  H       47.550     150.233     663.326
  H       46.937     148.681     662.806

 6  7  8  9  10  11  12  13  14  15  26  29  33  34 0
 6-311+G(2d,p)
 ****
 36  38  39  40  41 0
 6-311+G(2d,p)
 ****
 1  2  3  4  5  16  17  18  19  20  21  22  23  24  25 0
 3-21G
 ****
 27  28  30  31  32  35  37  42  43  44  45  46  47 0
 3-21G
 ****
 48  49 0
 3-21G
 ****


