%nproc=1
%NoSave
%Mem=1900MB
#P OB98/GEN NMR

erre ene a

0 1
  C     -254.733     939.751      -1.649
  O     -253.555     938.992      -1.843
  P     -252.367     939.180      -0.778
  C     -251.624     936.697      -0.948
  O     -251.276     938.060      -1.147
  C     -250.605     935.788      -1.640
  O     -250.670     935.952      -3.070
  C     -249.159     936.044      -1.265
  O     -248.804     935.429      -0.036
  C     -248.431     935.377      -2.415
  O     -248.398     933.958      -2.219
  C     -249.346     935.719      -3.621
  N     -247.024     937.322      -7.869
  C     -247.243     936.095      -7.388
  N     -247.860     935.749      -6.230
  C     -248.233     936.844      -5.547
  C     -248.061     938.160      -5.899
  C     -247.425     938.399      -7.135
  N     -247.227     939.662      -7.650
  N     -248.573     939.009      -4.942
  C     -249.072     938.209      -4.034
  N     -248.911     936.895      -4.339
  O     -253.023     938.637       0.583
  O     -251.864     940.568      -0.635
  H     -248.018     933.805      -1.332
  H     -252.554     939.010       1.349
  H     -246.885     935.273      -7.988
  H     -249.583     938.536      -3.125
  H     -249.418     934.890      -4.328
  H     -247.399     935.715      -2.522
  H     -248.941     937.121      -1.249
  H     -250.886     934.740      -1.415
  H     -252.614     936.508      -1.379
  H     -246.943     939.743      -8.611
  H     -247.710     940.440      -7.201
  H     -251.659     936.481       0.118
  P     -247.273     935.575       0.434
  C     -247.798     934.473       2.737
  O     -247.061     934.407       1.540
  O     -247.288     936.924       1.301
  O     -246.300     935.620      -0.690
  H     -246.392     937.326       1.302
  H     -247.770     933.485       3.213
  H     -248.839     934.739       2.556
  H     -247.353     935.219       3.412
  H     -255.434     939.527      -2.426
  H     -254.494     940.794      -1.674
  H     -255.163     939.506      -0.700

 3  4  5  6  7  8  9  10  11  12  22  25  29  30  31  32 0
 6-311+G(2d,p)
 ****
 33  36  37 0
 6-311+G(2d,p)
 ****
 1  2  13  14  15  16  17  18  19  20  21  23  24  26 0
 3-21G
 ****
 27  28  34  35  38  39  40  41  42  43  44  45  46  47  48 0
 3-21G
 ****


