%nproc=1
%NoSave
%Mem=1900MB
#P OB98/GEN NMR

erre ene a

0 1
  C     1690.781    -441.466     955.237
  O     1691.827    -442.209     955.823
  H     1690.981    -441.358     954.172
  H     1690.733    -440.468     955.691
  H     1689.826    -441.976     955.369
  P     1691.634    -442.686     957.342
  C     1692.892    -444.969     957.399
  O     1691.637    -444.294     957.318
  C     1693.102    -445.827     956.145
  O     1693.215    -444.949     954.990
  C     1694.374    -446.690     956.194
  O     1694.108    -447.926     955.541
  C     1695.348    -445.890     955.358
  O     1696.406    -446.667     954.805
  C     1694.415    -445.304     954.288
  N     1694.995    -444.137     953.615
  C     1695.845    -444.390     952.528
  O     1696.068    -445.490     952.062
  N     1696.444    -443.278     951.996
  C     1696.297    -441.996     952.437
  O     1696.887    -441.052     951.919
  C     1695.397    -441.799     953.571
  C     1694.801    -442.863     954.102
  O     1690.102    -442.328     957.637
  O     1692.570    -442.084     958.334
  H     1690.031    -441.428     957.991
  H     1696.818    -447.174     955.538
  H     1697.061    -443.448     951.213
  H     1695.277    -440.789     953.953
  H     1694.150    -442.753     954.973
  H     1694.158    -446.071     953.553
  H     1695.807    -445.083     955.955
  H     1694.759    -446.877     957.208
  H     1692.225    -446.453     955.987
  H     1692.901    -445.621     958.281
  H     1693.692    -444.229     957.497
  P     1692.897    -448.818     956.116
  C     1690.862    -448.581     954.485
  O     1691.550    -448.091     955.624
  O     1692.984    -448.478     957.685
  O     1693.025    -450.261     955.768
  H     1693.257    -447.558     957.858
  H     1689.995    -447.980     954.306
  H     1690.564    -449.594     954.657
  H     1691.508    -448.539     953.633

 6  7  8  9  10  11  12  13  14  15  16  27  31  32  33  34  35 0
 6-311+G(2d,p)
 ****
 36  37 0
 6-311+G(2d,p)
 ****
 1  2  3  4  5  17  18  19  20  21  22  23  24  25 0
 3-21G
 ****
 26  28  29  30  38  39  40  41  42  43  44  45 0
 3-21G
 ****


