%nproc=1
%NoSave
%Mem=1900MB
#P OB98/GEN NMR

erre ene a

0 1
  C       87.073     102.936     -53.006
  O       88.115     103.378     -53.857
  H       87.367     103.112     -51.968
  H       86.907     101.865     -53.149
  H       86.150     103.487     -53.213
  P       87.786     103.423     -55.424
  C       86.956     105.895     -55.142
  O       86.704     104.592     -55.652
  C       87.216     106.865     -56.293
  O       86.065     106.962     -57.156
  C       87.457     108.302     -55.857
  O       88.720     108.482     -55.254
  C       87.309     109.029     -57.187
  O       88.528     109.014     -57.939
  C       86.216     108.193     -57.897
  N       84.968     108.927     -58.015
  C       85.030     110.096     -58.788
  O       86.088     110.426     -59.324
  N       83.907     110.872     -58.894
  C       82.825     110.532     -58.264
  N       81.755     111.363     -58.384
  C       82.717     109.308     -57.438
  C       83.817     108.560     -57.359
  O       86.930     102.087     -55.634
  O       88.979     103.530     -56.312
  H       89.198     109.471     -57.388
  H       86.212     101.977     -54.989
  H       81.788     109.061     -56.946
  H       83.828     107.646     -56.774
  H       86.545     107.912     -58.909
  H       87.037     110.077     -57.044
  H       86.649     108.636     -55.193
  H       88.062     106.480     -56.880
  H       81.887     112.219     -58.913
  H       87.807     105.882     -54.456
  H       80.890     111.241     -57.880
  H       86.075     106.206     -54.573
  P       88.930     109.524     -54.057
  C       88.504     107.612     -52.381
  O       88.144     108.928     -52.784
  O       88.596     110.940     -54.376
  O       90.460     109.293     -53.639
  H       90.673     108.388     -53.349
  H       87.919     107.327     -51.532
  H       89.542     107.589     -52.123
  H       88.322     106.930     -53.185

 6  7  8  9  10  11  12  13  14  15  16  26  30  31  32  33  35 0
 6-311+G(2d,p)
 ****
 37  38 0
 6-311+G(2d,p)
 ****
 1  2  3  4  5  17  18  19  20  21  22  23  24  25 0
 3-21G
 ****
 27  28  29  34  36  39  40  41  42  43  44  45  46 0
 3-21G
 ****


