%nproc=1
%NoSave
%Mem=1900MB
#P OB98/GEN NMR

erre ene a

0 1
  C     -293.854    -200.703     -78.857
  O     -295.265    -200.654     -78.944
  H     -293.555    -200.435     -77.840
  H     -293.409    -199.988     -79.555
  H     -293.496    -201.711     -79.079
  P     -295.899    -200.959     -80.386
  C     -295.711    -203.539     -80.205
  O     -295.277    -202.359     -80.867
  C     -296.413    -204.474     -81.188
  O     -296.789    -205.707     -80.538
  C     -297.683    -203.897     -81.804
  O     -297.378    -203.074     -82.917
  C     -298.420    -205.171     -82.201
  O     -297.903    -205.704     -83.439
  C     -298.098    -206.107     -81.029
  N     -302.688    -207.623     -79.566
  C     -302.048    -207.762     -80.782
  N     -302.745    -208.372     -81.768
  N     -300.836    -207.332     -81.020
  C     -300.282    -206.688     -79.965
  C     -300.811    -206.484     -78.710
  C     -302.132    -207.015     -78.444
  O     -302.720    -206.997     -77.367
  N     -299.933    -205.808     -77.904
  C     -298.891    -205.574     -78.678
  N     -299.056    -206.088     -79.942
  O     -295.182    -199.892     -81.342
  O     -297.382    -200.846     -80.471
  H     -298.205    -206.625     -83.541
  H     -295.830    -199.574     -81.999
  H     -303.608    -207.998     -79.433
  H     -297.993    -205.053     -78.374
  H     -298.015    -207.152     -81.352
  H     -299.483    -204.984     -82.367
  H     -303.750    -208.455     -81.738
  H     -298.274    -203.355     -81.057
  H     -302.302    -208.407     -82.678
  H     -295.688    -204.732     -81.970
  H     -296.409    -203.260     -79.405
  H     -294.848    -204.045     -79.764
  P     -298.581    -202.600     -83.862
  C     -298.985    -200.347     -82.629
  O     -299.519    -201.608     -83.010
  O     -299.468    -203.925     -84.001
  O     -298.162    -202.092     -85.201
  H     -299.339    -204.316     -84.888
  H     -299.719    -199.802     -82.072
  H     -298.718    -199.793     -83.505
  H     -298.116    -200.496     -82.023

 6  7  8  9  10  11  12  13  14  15  26  29  33  34 0
 6-311+G(2d,p)
 ****
 36  38  39  40  41 0
 6-311+G(2d,p)
 ****
 1  2  3  4  5  16  17  18  19  20  21  22  23  24  25 0
 3-21G
 ****
 27  28  30  31  32  35  37  42  43  44  45  46  47 0
 3-21G
 ****
 48  49 0
 3-21G
 ****


