%nproc=1
%NoSave
%Mem=1900MB
#P OB98/GEN NMR

erre ene a

0 1
  C       -7.482     129.165      43.240
  O       -6.089     128.921      43.158
  H       -7.896     128.571      44.059
  H       -7.966     128.866      42.306
  H       -7.674     130.225      43.437
  P       -5.256     129.872      42.173
  C       -5.655     128.440      40.010
  O       -5.857     129.670      40.693
  C       -6.775     128.211      38.999
  O       -8.050     128.097      39.663
  C       -6.979     129.358      38.022
  O       -5.955     129.437      37.055
  C       -8.338     128.994      37.439
  O       -8.219     128.052      36.366
  C       -9.055     128.354      38.653
  N      -10.134     129.191      39.145
  C      -11.358     129.047      38.477
  O      -11.467     128.235      37.554
  N      -12.407     129.849      38.845
  C      -12.244     130.737      39.778
  N      -13.316     131.523      40.074
  C      -10.971     130.923      40.505
  C       -9.966     130.125      40.141
  O       -3.840     129.132      42.095
  O       -5.178     131.300      42.599
  H       -9.120     127.942      35.996
  H       -3.904     128.180      41.912
  H      -10.891     131.668      41.284
  H       -8.997     130.194      40.623
  H       -9.478     127.377      38.379
  H       -8.852     129.871      37.037
  H       -7.084     130.306      38.569
  H       -6.572     127.268      38.471
  H      -14.150     131.399      39.513
  H       -5.610     127.608      40.723
  H      -13.282     132.296      40.722
  H       -4.687     128.496      39.503
  P       -5.403     130.851      36.540
  C       -7.259     131.086      34.767
  O       -6.664     131.646      35.933
  O       -4.224     130.783      35.628
  O       -5.131     131.652      37.901
  H       -5.912     131.775      38.468
  H       -8.081     131.697      34.458
  H       -7.610     130.099      34.985
  H       -6.533     131.042      33.982

 6  7  8  9  10  11  12  13  14  15  16  26  30  31  32  33  35 0
 6-311+G(2d,p)
 ****
 37  38 0
 6-311+G(2d,p)
 ****
 1  2  3  4  5  17  18  19  20  21  22  23  24  25 0
 3-21G
 ****
 27  28  29  34  36  39  40  41  42  43  44  45  46 0
 3-21G
 ****


