%nproc=1
%NoSave
%Mem=1900MB
#P OB98/GEN NMR

erre ene a

0 1
  C      -78.220     151.948     -56.260
  O      -78.115     152.950     -57.252
  H      -78.254     152.433     -55.279
  H      -77.359     151.276     -56.290
  H      -79.143     151.378     -56.399
  P      -77.790     152.489     -58.758
  C      -75.309     153.128     -59.084
  O      -76.233     152.089     -58.759
  C      -74.437     152.730     -60.278
  O      -73.958     151.378     -60.117
  C      -75.181     152.732     -61.607
  O      -75.540     154.015     -62.065
  C      -74.299     151.844     -62.474
  O      -73.231     152.545     -63.104
  C      -73.731     150.845     -61.436
  N      -74.302     149.511     -61.589
  C      -74.229     148.963     -62.864
  O      -73.737     149.552     -63.830
  N      -74.779     147.720     -63.011
  C      -75.427     147.015     -62.042
  O      -75.939     145.918     -62.250
  C      -75.499     147.656     -60.720
  C      -74.940     148.857     -60.555
  O      -78.167     153.463     -59.834
  O      -78.526     151.073     -58.887
  H      -73.617     153.346     -63.511
  H      -78.626     150.812     -59.835
  H      -74.726     147.303     -63.928
  H      -76.011     147.126     -59.927
  H      -74.983     149.354     -59.588
  H      -72.641     150.757     -61.553
  H      -74.877     151.364     -63.267
  H      -76.120     152.186     -61.469
  H      -73.569     153.398     -60.310
  H      -74.669     153.287     -58.210
  H      -75.854     154.052     -59.299
  P      -77.003     154.378     -62.598
  C      -76.124     153.798     -64.976
  O      -77.193     153.696     -64.043
  O      -77.458     155.790     -62.409
  O      -77.923     153.444     -61.659
  H      -78.755     153.926     -61.493
  H      -76.394     153.301     -65.884
  H      -75.248     153.340     -64.566
  H      -75.926     154.830     -65.180

 6  7  8  9  10  11  12  13  14  15  16  26  31  32  33  34  35 0
 6-311+G(2d,p)
 ****
 36  37 0
 6-311+G(2d,p)
 ****
 1  2  3  4  5  17  18  19  20  21  22  23  24  25 0
 3-21G
 ****
 27  28  29  30  38  39  40  41  42  43  44  45 0
 3-21G
 ****


