%nproc=1
%NoSave
%Mem=1900MB
#P OB98/GEN NMR

erre ene a

0 1
  C      178.039    -457.201     163.357
  O      177.279    -456.028     163.027
  P      176.399    -455.903     161.697
  C      173.970    -455.596     162.515
  O      175.130    -454.963     161.986
  C      173.143    -454.631     163.378
  O      173.809    -454.372     164.629
  C      172.901    -453.264     162.754
  O      171.907    -453.331     161.743
  C      172.510    -452.446     163.981
  O      171.124    -452.631     164.310
  C      173.421    -453.057     165.066
  N      174.582    -452.219     165.358
  C      174.767    -451.857     166.693
  O      173.957    -452.187     167.555
  N      175.878    -451.104     167.019
  C      176.673    -450.686     166.081
  N      177.750    -449.950     166.458
  C      176.455    -450.973     164.647
  C      175.400    -451.744     164.364
  O      176.052    -457.217     161.072
  O      177.286    -455.025     160.690
  H      171.009    -453.583     164.494
  H      177.093    -455.300     159.772
  H      177.129    -450.589     163.899
  H      175.175    -452.008     163.339
  H      172.854    -453.203     165.999
  H      172.665    -451.373     163.834
  H      173.842    -452.876     162.338
  H      172.186    -455.126     163.605
  H      177.873    -449.776     167.450
  H      174.292    -456.444     163.131
  H      178.430    -449.584     165.813
  H      173.363    -455.977     161.687
  P      171.980    -452.345     160.483
  C      172.708    -453.851     158.532
  O      171.623    -453.193     159.179
  O      173.225    -451.519     160.386
  O      170.689    -451.412     160.659
  H      170.885    -450.531     160.296
  H      172.311    -454.682     157.945
  H      173.421    -454.237     159.266
  H      173.206    -453.153     157.867
  H      178.542    -457.049     164.289
  H      178.760    -457.387     162.588
  H      177.381    -458.041     163.439

 3  4  5  6  7  8  9  10  11  12  13  23  27  28  29  30  32 0
 6-311+G(2d,p)
 ****
 34  35 0
 6-311+G(2d,p)
 ****
 1  2  14  15  16  17  18  19  20  21  22  24  25  26 0
 3-21G
 ****
 31  33  36  37  38  39  40  41  42  43  44  45  46 0
 3-21G
 ****


