%nproc=1
%NoSave
%Mem=1900MB
#P OB98/GEN NMR

erre ene a

0 1
  C      262.483     574.367     282.688
  O      261.215     575.023     282.537
  P      259.885     574.184     282.815
  C      259.876     574.386     285.394
  O      259.217     574.719     284.178
  C      258.884     573.761     286.397
  O      259.612     573.344     287.581
  C      257.788     574.706     286.890
  O      256.575     574.782     286.143
  C      257.430     574.065     288.236
  O      256.496     572.988     288.026
  C      258.761     573.508     288.723
  N      259.548     574.325     293.725
  C      258.856     573.366     293.056
  N      258.694     573.230     291.726
  C      259.353     574.189     291.064
  C      260.097     575.230     291.610
  C      260.179     575.281     293.003
  N      260.871     576.259     293.684
  N      260.610     576.028     290.598
  C      260.170     575.493     289.481
  N      259.416     574.373     289.703
  O      260.006     572.699     282.712
  O      258.876     574.754     281.709
  H      256.320     572.597     288.906
  H      258.322     574.017     281.371
  H      258.361     572.623     293.679
  H      260.369     575.880     288.492
  H      258.648     572.524     289.204
  H      256.938     574.770     288.916
  H      258.188     575.719     287.052
  H      258.434     572.869     285.939
  H      260.322     575.286     285.833
  H      260.839     576.263     294.681
  H      261.304     577.014     293.166
  H      260.699     573.703     285.147
  P      255.937     576.200     285.732
  C      256.447     576.148     283.174
  O      255.493     576.054     284.197
  O      256.799     577.387     286.020
  O      254.542     576.190     286.518
  H      253.906     575.543     286.186
  H      255.992     575.803     282.226
  H      257.316     575.530     283.387
  H      256.753     577.192     283.053
  H      263.270     575.057     282.468
  H      262.538     573.537     282.015
  H      262.586     574.017     283.694

 3  4  5  6  7  8  9  10  11  12  22  25  29  30  31  32 0
 6-311+G(2d,p)
 ****
 33  36  37 0
 6-311+G(2d,p)
 ****
 1  2  13  14  15  16  17  18  19  20  21  23  24  26 0
 3-21G
 ****
 27  28  34  35  38  39  40  41  42  43  44  45  46  47  48 0
 3-21G
 ****


