%nproc=1
%NoSave
%Mem=1900MB
#P OB98/GEN NMR

erre ene a

0 1
  C      457.213     694.077    -107.988
  O      456.640     695.259    -107.405
  P      456.447     695.266    -105.813
  C      457.793     696.558    -104.005
  O      457.111     696.605    -105.250
  C      458.816     697.708    -103.900
  O      459.890     697.522    -104.833
  C      458.236     699.074    -104.218
  O      457.521     699.616    -103.117
  C      459.515     699.879    -104.475
  O      460.079     700.313    -103.222
  C      460.433     698.842    -105.140
  N      463.459     699.691    -109.125
  C      463.756     699.632    -107.781
  N      465.053     699.787    -107.453
  N      462.870     699.424    -106.830
  C      461.604     699.252    -107.331
  C      461.186     699.287    -108.635
  C      462.176     699.550    -109.660
  O      461.957     699.650    -110.858
  N      459.846     699.065    -108.736
  C      459.448     698.846    -107.490
  N      460.486     698.968    -106.593
  O      457.451     694.115    -105.318
  O      455.043     694.999    -105.369
  H      460.168     699.513    -102.661
  H      457.147     693.736    -104.485
  H      464.173     699.866    -109.808
  H      458.434     698.603    -107.180
  H      461.448     698.885    -104.757
  H      459.331     700.785    -105.082
  H      465.802     699.879    -108.125
  H      457.622     699.044    -105.132
  H      465.298     699.715    -106.469
  H      459.231     697.698    -102.889
  H      458.327     695.607    -103.906
  H      457.068     696.603    -103.187
  P      455.914     699.670    -103.238
  C      454.194     698.832    -101.480
  O      455.365     699.579    -101.733
  O      455.557     698.246    -103.874
  O      455.395     700.804    -104.070
  H      454.722     698.310    -104.393
  H      454.186     697.892    -102.033
  H      453.315     699.427    -101.770
  H      454.124     698.617    -100.421
  H      457.286     694.202    -109.048
  H      456.591     693.234    -107.770
  H      458.189     693.915    -107.580

 3  4  5  6  7  8  9  10  11  12  23  26  30  31  33  0
 6-311+G(2d,p)
 ****
 35  36  37  38 0
 6-311+G(2d,p)
 ****
 1  2  13  14  15  16  17  18  19  20  21  22  24  25  27  28  29 0
 3-21G
 ****
 32  34  39  40  41  42  43  44  45  46  47  48  49 0
 3-21G
 ****


