%nproc=1
%NoSave
%Mem=1900MB
#P OB98/GEN NMR

erre ene a

0 1
  C      869.391    -514.562    -894.060
  O      868.772    -515.732    -894.650
  P      869.432    -516.316    -895.990
  C      870.164    -518.781    -895.640
  O      870.516    -517.401    -895.570
  C      871.285    -519.598    -896.290
  O      871.467    -519.198    -897.700
  C      872.646    -519.455    -895.630
  O      872.785    -520.315    -894.510
  C      873.578    -519.894    -896.750
  O      873.608    -521.339    -896.800
  C      872.883    -519.322    -897.990
  N      877.005    -516.901    -899.690
  C      876.815    -518.238    -899.380
  N      877.887    -519.041    -899.550
  N      875.703    -518.734    -898.940
  C      874.713    -517.826    -898.830
  C      874.762    -516.460    -899.090
  C      876.031    -515.926    -899.560
  O      876.264    -514.731    -899.830
  N      873.569    -515.852    -898.850
  C      872.789    -516.830    -898.450
  N      873.424    -518.027    -898.400
  O      870.328    -515.088    -896.520
  O      868.431    -516.737    -897.020
  H      874.082    -521.630    -895.990
  H      870.414    -515.134    -897.480
  H      877.892    -516.561    -900.000
  H      871.730    -516.687    -898.180
  H      872.964    -520.001    -898.870
  H      874.605    -519.554    -896.580
  H      878.776    -518.751    -899.940
  H      872.835    -518.384    -895.380
  H      877.766    -520.046    -899.370
  H      870.969    -520.653    -896.280
  H      869.233    -518.919    -896.180
  H      869.958    -519.146    -894.630
  P      872.864    -519.645    -893.060
  C      870.342    -520.063    -892.600
  O      871.392    -519.121    -892.710
  O      873.712    -518.306    -893.320
  O      873.517    -520.501    -892.020
  H      874.254    -518.082    -892.530
  H      869.454    -519.544    -892.200
  H      870.611    -520.888    -891.910
  H      870.113    -520.467    -893.600
  H      868.854    -514.281    -893.178
  H      869.371    -513.755    -894.763
  H      870.405    -514.786    -893.804

 3  4  5  6  7  8  9  10  11  12  23  26  30  31 0
 6-311+G(2d,p)
 ****
 33  35  36  37  38 0
 6-311+G(2d,p)
 ****
 1  2  13  14  15  16  17  18  19  20  21  22  24  25 0
 3-21G
 ****
 27  28  29  32  34  39  40  41  42  43  44  45  46  47  48  49 0
 3-21G
 ****


