%nproc=1
%NoSave
%Mem=1900MB
#P OB98/GEN NMR

erre ene a

0 1
  C     -145.707     119.510    -190.107
  O     -144.898     120.194    -191.042
  H     -145.069     119.133    -189.300
  H     -146.196     118.658    -190.587
  H     -146.458     120.177    -189.675
  P     -145.605     121.002    -192.233
  C     -145.365     123.392    -193.189
  O     -144.746     122.334    -192.468
  C     -144.764     124.746    -192.781
  O     -145.041     124.972    -191.361
  C     -143.231     124.844    -192.969
  O     -142.932     126.223    -193.252
  C     -142.746     124.441    -191.587
  O     -141.381     124.702    -191.397
  C     -143.754     125.220    -190.732
  N     -143.802     124.846    -189.320
  C     -143.029     125.597    -188.435
  O     -142.317     126.549    -188.750
  N     -143.093     125.204    -187.117
  C     -143.849     124.178    -186.618
  O     -143.888     123.896    -185.421
  C     -144.634     123.424    -187.605
  C     -144.575     123.790    -188.887
  O     -147.077     121.218    -192.088
  O     -145.264     120.127    -193.535
  H     -146.044     119.596    -193.784
  H     -141.062     124.207    -190.610
  H     -142.547     125.737    -186.459
  H     -145.231     122.593    -187.244
  H     -145.156     123.257    -189.640
  H     -143.559     126.295    -190.815
  H     -142.870     123.361    -191.450
  H     -142.857     124.215    -193.785
  H     -145.282     125.544    -193.338
  H     -146.436     123.382    -192.954
  H     -145.228     123.227    -194.256
  P     -142.982     126.857    -194.726
  C     -143.868     129.071    -195.736
  O     -143.333     128.417    -194.586
  O     -143.882     126.123    -195.675
  O     -141.466     126.850    -195.247
  H     -141.456     126.813    -196.219
  H     -144.055     130.099    -195.507
  H     -144.783     128.597    -196.022
  H     -143.166     129.007    -196.541

 6  7  8  9  10  11  12  13  14  15  16  27  31  32  33  34  35 0
 6-311+G(2d,p)
 ****
 36  37 0
 6-311+G(2d,p)
 ****
 1  2  3  4  5  17  18  19  20  21  22  23  24  25 0
 3-21G
 ****
 26  28  29  30  38  39  40  41  42  43  44  45 0
 3-21G
 ****


