%nproc=1
%NoSave
%Mem=1900MB
#P OB98/GEN NMR

erre ene a

0 1
  C      105.288      -8.893     -95.869
  O      104.992      -7.720     -95.140
  H      106.105      -9.431     -95.383
  H      104.402      -9.534     -95.878
  H      105.559      -8.653     -96.901
  P      106.036      -6.507     -95.247
  C      104.919      -5.232     -97.212
  O      105.213      -5.252     -95.824
  C      105.106      -3.826     -97.778
  O      105.169      -3.915     -99.229
  C      103.980      -2.844     -97.416
  O      104.562      -1.561     -97.164
  C      103.159      -2.772     -98.690
  O      102.433      -1.554     -98.809
  C      104.239      -2.950     -99.752
  N      101.286      -1.517    -103.634
  C      101.920      -0.811    -102.675
  N      102.736      -1.270    -101.705
  C      102.925      -2.594    -101.830
  C      102.355      -3.446    -102.758
  C      101.480      -2.857    -103.688
  N      100.776      -3.576    -104.626
  N      102.751      -4.749    -102.525
  C      103.526      -4.685    -101.460
  N      103.659      -3.404    -101.003
  O      106.954      -6.953     -96.482
  O      106.840      -6.239     -94.021
  H      101.688      -1.567     -98.179
  H      107.686      -7.510     -96.161
  H      101.740       0.261    -102.679
  H      103.985      -5.529    -100.966
  H      104.785      -2.021     -99.959
  H      102.444      -3.603     -98.712
  H      103.384      -3.155     -96.551
  H      106.076      -3.442     -97.439
  H      103.878      -5.538     -97.361
  H      100.091      -3.083    -105.178
  H      100.825      -4.584    -104.606
  H      105.572      -5.941     -97.731
  P      103.980      -0.715     -95.933
  C      104.154      -1.987     -93.667
  O      104.783      -1.125     -94.609
  O      102.532      -1.356     -95.700
  O      103.896       0.753     -96.193
  H      101.909      -0.677     -95.385
  H      104.817      -2.163     -92.846
  H      103.916      -2.917     -94.139
  H      103.256      -1.529     -93.308

 6  7  8  9  10  11  12  13  14  15  25  28  32  33  34  35 0
 6-311+G(2d,p)
 ****
 36  39  40 0
 6-311+G(2d,p)
 ****
 1  2  3  4  5  16  17  18  19  20  21  22  23  24 0
 3-21G
 ****
 26  27  29  30  31  37  38  41  42  43  44  45  46  47 0
 3-21G
 ****
 48 0
 3-21G
 ****


