%nproc=1
%NoSave
%Mem=1900MB
#P OB98/GEN NMR

erre ene a

0 1
  C     -290.094     957.860    -934.143
  O     -291.471     957.523    -934.010
  P     -292.032     956.171    -934.645
  C     -291.642     955.197    -937.011
  O     -291.909     956.357    -936.250
  C     -291.476     955.545    -938.494
  O     -290.347     956.418    -938.700
  C     -291.231     954.338    -939.399
  O     -292.453     953.642    -939.639
  C     -290.658     955.014    -940.640
  O     -291.680     955.532    -941.497
  C     -289.811     956.151    -940.019
  N     -288.384     955.853    -939.980
  C     -287.615     956.460    -940.991
  O     -288.146     957.168    -941.852
  N     -286.252     956.189    -941.026
  C     -285.740     955.392    -940.146
  N     -284.391     955.186    -940.225
  C     -286.519     954.714    -939.093
  C     -287.827     954.984    -939.077
  O     -293.367     955.732    -934.163
  O     -290.871     955.096    -934.331
  H     -292.289     954.795    -941.686
  H     -290.871     954.836    -933.386
  H     -286.043     954.052    -938.400
  H     -288.473     954.526    -938.336
  H     -289.959     957.086    -940.595
  H     -290.054     954.321    -941.239
  H     -290.488     953.674    -938.924
  H     -292.392     956.081    -938.815
  H     -283.913     955.639    -940.979
  H     -292.459     954.488    -936.893
  H     -283.891     954.541    -939.632
  H     -290.703     954.724    -936.629
  P     -292.432     952.236    -940.383
  C     -291.130     951.460    -942.474
  O     -291.911     952.481    -941.893
  O     -293.671     951.410    -940.261
  O     -291.178     951.457    -939.715
  H     -291.436     950.535    -939.519
  H     -291.142     951.586    -943.563
  H     -291.522     950.482    -942.230
  H     -290.106     951.541    -942.099
  H     -289.907     958.795    -933.657
  H     -289.845     957.942    -935.181
  H     -289.495     957.097    -933.692

 3  4  5  6  7  8  9  10  11  12  13  23  27  28  29  30  32 0
 6-311+G(2d,p)
 ****
 34  35 0
 6-311+G(2d,p)
 ****
 1  2  14  15  16  17  18  19  20  21  22  24  25  26 0
 3-21G
 ****
 31  33  36  37  38  39  40  41  42  43  44  45  46 0
 3-21G
 ****


