%nproc=1
%NoSave
%Mem=1900MB
#P OB98/GEN NMR

erre ene a

0 1
  C      693.996     987.504     446.776
  O      694.968     988.405     447.307
  P      694.438     989.815     447.864
  C      694.763     988.927     450.311
  O      693.902     989.515     449.349
  C      694.416     989.428     451.712
  O      694.707     990.846     451.826
  C      692.940     989.285     452.063
  O      692.609     987.940     452.367
  C      692.842     990.244     453.251
  O      693.327     989.611     454.445
  C      693.805     991.373     452.836
  N      693.116     992.564     452.352
  C      692.992     993.610     453.273
  O      693.417     993.538     454.424
  N      692.350     994.728     452.814
  C      691.803     994.891     451.574
  O      691.252     995.925     451.222
  C      691.926     993.743     450.669
  C      692.565     992.645     451.089
  O      693.111     990.017     446.998
  O      695.448     990.912     447.745
  H      692.650     989.181     446.810
  H      694.235     989.313     454.256
  H      692.264     995.501     453.460
  H      691.475     993.829     449.685
  H      692.656     991.785     450.437
  H      694.441     991.672     453.680
  H      691.820     990.568     453.446
  H      692.322     989.657     451.244
  H      695.031     988.889     452.427
  H      695.804     989.186     450.083
  H      694.669     987.835     450.248
  P      691.680     987.172     451.299
  C      693.753     986.008     450.222
  O      692.619     986.817     450.055
  O      690.765     988.378     450.766
  O      690.921     986.031     451.881
  H      691.268     989.189     450.582
  H      694.051     985.602     449.255
  H      693.547     985.173     450.903
  H      694.584     986.610     450.617
  H      694.482     986.611     446.443
  H      693.495     987.966     445.951
  H      693.283     987.260     447.536

 3  4  5  6  7  8  9  10  11  12  13  24  28  29  30  31  32 0
 6-311+G(2d,p)
 ****
 33  34 0
 6-311+G(2d,p)
 ****
 1  2  14  15  16  17  18  19  20  21  22  23  25  26  27 0
 3-21G
 ****
 35  36  37  38  39  40  41  42  43  44  45 0
 3-21G
 ****


