%nproc=1
%NoSave
%Mem=1900MB
#P OB98/GEN NMR

erre ene a

0 1
  C      729.450    1520.076     947.205
  O      729.223    1521.437     946.952
  P      727.881    1522.097     947.625
  C      729.189    1522.487     949.848
  O      728.438    1523.072     948.776
  C      729.993    1523.562     950.587
  O      730.933    1524.172     949.658
  C      729.193    1524.693     951.193
  O      728.632    1524.331     952.436
  C      730.272    1525.749     951.346
  O      731.083    1525.474     952.516
  C      731.121    1525.557     950.062
  N      731.342    1530.409     948.454
  C      731.699    1529.822     949.612
  N      731.619    1528.531     949.985
  C      731.000    1527.794     949.023
  C      730.549    1528.268     947.773
  C      730.726    1529.622     947.537
  N      730.357    1530.241     946.313
  N      729.969    1527.255     947.064
  C      730.125    1526.194     947.808
  N      730.741    1526.455     949.007
  O      727.243    1520.874     948.428
  O      726.956    1522.699     946.655
  H      731.746    1526.193     952.553
  H      726.282    1521.036     948.542
  H      732.145    1530.469     950.354
  H      729.817    1525.202     947.543
  H      732.185    1525.672     950.271
  H      729.854    1526.753     951.460
  H      728.426    1525.049     950.494
  H      730.598    1523.024     951.351
  H      729.849    1521.700     949.461
  H      730.698    1531.148     946.174
  H      730.093    1529.626     945.535
  H      728.455    1522.006     950.557
  P      727.333    1525.162     952.916
  C      725.536    1523.604     951.844
  O      726.174    1524.060     953.043
  O      726.932    1526.005     951.597
  O      727.589    1526.031     954.103
  H      726.464    1526.805     951.852
  H      725.013    1522.658     952.081
  H      726.280    1523.400     951.063
  H      724.836    1524.350     951.489
  H      730.350    1519.767     946.715
  H      728.627    1519.502     946.834
  H      729.547    1519.921     948.259

 3  4  5  6  7  8  9  10  11  12  22  25  29  30  31  32 0
 6-311+G(2d,p)
 ****
 33  36  37 0
 6-311+G(2d,p)
 ****
 1  2  13  14  15  16  17  18  19  20  21  23  24  26 0
 3-21G
 ****
 27  28  34  35  38  39  40  41  42  43  44  45  46  47  48 0
 3-21G
 ****


