%nproc=1
%NoSave
%Mem=1900MB
#P OB98/GEN NMR

erre ene a

0 1
  C     -889.030    -890.697    -928.092
  O     -889.420    -891.537    -927.032
  H     -889.120    -889.657    -927.788
  H     -887.970    -890.887    -928.300
  H     -889.620    -890.897    -928.972
  P     -890.990    -891.547    -926.654
  C     -891.250    -894.077    -927.140
  O     -891.640    -892.737    -927.489
  C     -892.450    -895.027    -927.206
  O     -893.460    -894.537    -926.276
  C     -893.060    -895.147    -928.602
  O     -893.490    -896.467    -928.825
  C     -894.300    -894.217    -928.539
  O     -895.280    -894.597    -929.461
  C     -894.690    -894.397    -927.078
  N     -899.430    -892.497    -926.757
  C     -898.950    -893.707    -927.150
  N     -897.680    -894.107    -927.253
  C     -896.870    -893.187    -926.752
  C     -897.180    -891.927    -926.222
  C     -898.560    -891.617    -926.255
  N     -899.050    -890.377    -925.828
  N     -896.030    -891.237    -925.818
  C     -895.050    -892.127    -926.050
  N     -895.510    -893.327    -926.603
  O     -891.540    -890.227    -927.439
  O     -891.340    -891.457    -925.210
  H     -895.090    -894.177    -930.335
  H     -891.310    -889.427    -926.920
  H     -899.730    -894.357    -927.576
  H     -894.020    -891.917    -925.826
  H     -895.320    -895.327    -926.918
  H     -894.000    -893.197    -928.707
  H     -892.370    -894.777    -929.391
  H     -892.130    -896.017    -926.809
  H     -890.850    -894.077    -926.099
  H     -900.000    -890.187    -925.926
  H     -898.400    -889.667    -925.540
  H     -890.460    -894.407    -927.797
  P     -892.320    -897.487    -929.304
  C     -892.450    -899.217    -927.402
  O     -891.680    -898.207    -928.011
  O     -891.160    -896.527    -929.840
  O     -892.810    -898.427    -930.396
  H     -890.870    -896.827    -930.693
  H     -891.919    -899.613    -926.562
  H     -892.634    -900.000    -928.108
  H     -893.382    -898.807    -927.074

 6  7  8  9  10  11  12  13  14  15  25  28  32  33  34  35 0
 6-311+G(2d,p)
 ****
 36  39  40 0
 6-311+G(2d,p)
 ****
 1  2  3  4  5  16  17  18  19  20  21  22  23  24 0
 3-21G
 ****
 26  27  29  30  31  37  38  41  42  43  44  45  46  47 0
 3-21G
 ****
 48 0
 3-21G
 ****


