%nproc=1
%NoSave
%Mem=1900MB
#P OB98/GEN NMR

erre ene a

0 1
  C     -248.490    -671.757     -16.301
  O     -247.424    -670.911     -15.922
  H     -249.375    -671.485     -15.721
  H     -248.245    -672.802     -16.096
  H     -248.717    -671.627     -17.365
  P     -245.969    -671.187     -16.546
  C     -245.018    -670.862     -14.155
  O     -245.096    -671.702     -15.302
  C     -244.344    -669.542     -14.509
  O     -244.160    -668.723     -13.333
  C     -242.946    -669.674     -15.112
  O     -242.954    -670.125     -16.461
  C     -242.469    -668.240     -14.980
  O     -243.084    -667.429     -16.001
  C     -242.998    -667.866     -13.579
  N     -241.999    -668.043     -12.521
  C     -241.179    -666.941     -12.244
  O     -241.304    -665.887     -12.880
  N     -240.200    -667.073     -11.285
  C     -240.044    -668.198     -10.669
  N     -239.033    -668.290      -9.761
  C     -240.905    -669.377     -10.912
  C     -241.853    -669.231     -11.846
  O     -245.369    -670.069     -17.339
  O     -246.152    -672.538     -17.391
  H     -242.766    -667.764     -16.856
  H     -245.278    -672.744     -17.813
  H     -240.728    -670.300     -10.378
  H     -242.509    -670.062     -12.090
  H     -243.357    -666.828     -13.558
  H     -241.380    -668.134     -15.094
  H     -242.311    -670.317     -14.495
  H     -245.018    -668.993     -15.181
  H     -238.437    -667.473      -9.653
  H     -244.457    -671.397     -13.378
  H     -238.677    -669.190      -9.453
  H     -246.025    -670.647     -13.777
  P     -241.730    -671.045     -16.953
  C     -240.301    -669.122     -17.973
  O     -240.420    -670.111     -16.966
  O     -242.059    -671.269     -18.499
  O     -241.550    -672.339     -16.214
  H     -242.551    -672.095     -18.646
  H     -239.381    -668.590     -17.844
  H     -241.121    -668.439     -17.900
  H     -240.311    -669.590     -18.935

 6  7  8  9  10  11  12  13  14  15  16  26  30  31  32  33  35 0
 6-311+G(2d,p)
 ****
 37  38 0
 6-311+G(2d,p)
 ****
 1  2  3  4  5  17  18  19  20  21  22  23  24  25 0
 3-21G
 ****
 27  28  29  34  36  39  40  41  42  43  44  45  46 0
 3-21G
 ****


