%nproc=1
%NoSave
%Mem=1900MB
#P OB98/GEN NMR

erre ene a

0 1
  C     -131.331    -254.170    -205.184
  O     -130.182    -254.452    -204.412
  H     -131.760    -253.207    -204.892
  H     -131.043    -254.123    -206.237
  H     -132.073    -254.963    -205.055
  P     -130.377    -254.455    -202.819
  C     -128.770    -256.421    -202.303
  O     -130.112    -255.962    -202.333
  C     -128.735    -257.941    -202.196
  O     -129.433    -258.536    -203.311
  C     -127.339    -258.552    -202.223
  O     -126.687    -258.442    -200.966
  C     -127.672    -259.999    -202.559
  O     -128.092    -260.689    -201.366
  C     -128.856    -259.851    -203.526
  N     -127.558    -263.101    -207.284
  C     -127.864    -263.304    -205.981
  N     -128.187    -262.397    -205.041
  C     -128.195    -261.156    -205.557
  C     -127.904    -260.794    -206.863
  C     -127.565    -261.831    -207.748
  N     -127.237    -261.612    -209.070
  N     -128.027    -259.432    -207.031
  C     -128.387    -258.974    -205.848
  N     -128.494    -259.978    -204.922
  O     -131.961    -254.281    -202.637
  O     -129.623    -253.400    -202.081
  H     -127.333    -260.675    -200.754
  H     -132.130    -253.738    -201.844
  H     -127.850    -264.341    -205.653
  H     -128.581    -257.933    -205.622
  H     -129.644    -260.582    -203.310
  H     -126.824    -260.550    -202.974
  H     -126.733    -258.123    -203.030
  H     -129.266    -258.227    -201.277
  H     -128.254    -255.989    -201.438
  H     -127.198    -262.399    -209.694
  H     -127.254    -260.657    -209.410
  H     -128.264    -256.093    -203.219
  P     -125.295    -257.640    -200.920
  C     -125.484    -256.554    -198.571
  O     -125.565    -256.367    -199.979
  O     -125.198    -257.001    -202.386
  O     -124.098    -258.465    -200.592
  H     -124.265    -256.838    -202.615
  H     -125.686    -255.627    -198.076
  H     -124.502    -256.891    -198.312
  H     -126.203    -257.285    -198.266

 6  7  8  9  10  11  12  13  14  15  25  28  32  33  34  35 0
 6-311+G(2d,p)
 ****
 36  39  40 0
 6-311+G(2d,p)
 ****
 1  2  3  4  5  16  17  18  19  20  21  22  23  24 0
 3-21G
 ****
 26  27  29  30  31  37  38  41  42  43  44  45  46  47  48 0
 3-21G
 ****


