%nproc=1
%NoSave
%Mem=1900MB
#P OB98/GEN NMR

erre ene a

0 1
  C       48.917     360.720    -300.924
  O       50.093     360.985    -300.173
  P       50.721     359.797    -299.296
  C       49.934     360.905    -297.078
  O       51.016     360.386    -297.830
  C       50.440     361.905    -296.030
  O       51.216     361.197    -295.017
  C       51.340     363.007    -296.608
  O       51.106     364.203    -295.849
  C       52.731     362.484    -296.305
  O       53.731     363.489    -296.341
  C       52.493     361.852    -294.925
  N       53.556     360.927    -294.533
  C       54.804     361.469    -294.256
  O       55.061     362.674    -294.320
  N       55.787     360.564    -293.947
  C       55.675     359.210    -293.982
  O       56.627     358.452    -293.813
  C       54.328     358.685    -294.279
  C       53.350     359.555    -294.539
  O       52.175     359.603    -299.929
  O       49.929     358.530    -299.307
  H       53.786     363.813    -297.254
  H       52.187     358.837    -300.540
  H       56.707     360.936    -293.734
  H       54.199     357.613    -294.297
  H       52.355     359.205    -294.785
  H       52.395     362.643    -294.168
  H       53.004     361.721    -297.051
  H       51.177     363.195    -297.674
  H       49.573     362.351    -295.524
  H       49.425     360.085    -296.566
  H       49.207     361.381    -297.749
  P       51.018     365.598    -296.646
  C       53.325     366.588    -295.882
  O       51.916     366.648    -295.827
  O       49.513     366.034    -296.319
  O       51.304     365.477    -298.109
  H       49.269     365.890    -295.384
  H       53.670     366.258    -296.870
  H       53.682     365.893    -295.120
  H       53.732     367.575    -295.685
  H       48.624     361.604    -301.451
  H       48.131     360.422    -300.262
  H       49.110     359.935    -301.624

 3  4  5  6  7  8  9  10  11  12  13  23  28  29  30  31  32 0
 6-311+G(2d,p)
 ****
 33  34 0
 6-311+G(2d,p)
 ****
 1  2  14  15  16  17  18  19  20  21  22  24  25  26 0
 3-21G
 ****
 27  35  36  37  38  39  40  41  42  43  44  45 0
 3-21G
 ****


