%nproc=1
%NoSave
%Mem=1900MB
#P OB98/GEN NMR

erre ene a

0 1
  C      462.790     408.242    -311.693
  O      462.621     407.127    -312.545
  H      462.702     409.153    -312.289
  H      463.783     408.216    -311.237
  H      462.021     408.251    -310.918
  P      462.626     405.675    -311.852
  C      460.374     405.620    -310.570
  O      461.086     405.226    -311.731
  C      458.863     405.487    -310.785
  O      458.462     406.429    -311.837
  C      458.402     404.090    -311.216
  O      457.120     403.841    -310.637
  C      458.223     404.240    -312.723
  O      457.355     403.247    -313.276
  C      457.684     405.666    -312.786
  N      454.973     407.593    -316.572
  C      454.582     407.158    -315.319
  N      453.270     407.246    -315.023
  N      455.411     406.669    -314.427
  C      456.700     406.676    -314.844
  C      457.217     407.070    -316.061
  C      456.282     407.573    -317.041
  O      456.565     407.959    -318.177
  N      458.574     406.881    -316.103
  C      458.884     406.378    -314.919
  N      457.778     406.232    -314.121
  O      463.042     406.013    -310.340
  O      463.538     404.673    -312.474
  H      457.802     402.380    -313.183
  H      464.007     405.924    -310.228
  H      454.290     407.942    -317.227
  H      459.877     406.102    -314.596
  H      456.628     405.726    -312.495
  H      459.193     404.163    -313.229
  H      452.577     407.648    -315.640
  H      459.093     403.280    -310.948
  H      452.971     406.973    -314.095
  H      458.348     405.805    -309.874
  H      460.613     406.662    -310.332
  H      460.681     404.987    -309.728
  P      456.881     402.444    -309.890
  C      457.159     403.488    -307.523
  O      456.328     402.752    -308.417
  O      458.371     401.933    -309.617
  O      456.090     401.451    -310.684
  H      458.388     400.955    -309.580
  H      456.655     403.612    -306.587
  H      457.372     404.449    -307.943
  H      458.074     402.956    -307.367

 6  7  8  9  10  11  12  13  14  15  26  29  33  34 0
 6-311+G(2d,p)
 ****
 36  38  39  40  41 0
 6-311+G(2d,p)
 ****
 1  2  3  4  5  16  17  18  19  20  21  22  23  24  25 0
 3-21G
 ****
 27  28  30  31  32  35  37  42  43  44  45  46  47 0
 3-21G
 ****
 48  49 0
 3-21G
 ****


