%nproc=1
%NoSave
%Mem=1900MB
#P OB98/GEN NMR

erre ene a

0 1
  C     -106.098     -51.664     124.357
  O     -107.288     -51.214     124.971
  H     -105.763     -52.572     124.863
  H     -105.316     -50.905     124.441
  H     -106.283     -51.893     123.304
  P     -107.897     -49.827     124.444
  C     -107.405     -48.773     126.768
  O     -107.271     -48.668     125.356
  C     -106.723     -47.582     127.435
  O     -105.304     -47.608     127.152
  C     -107.209     -46.229     126.936
  O     -108.447     -45.844     127.512
  C     -106.064     -45.333     127.372
  O     -106.207     -44.915     128.737
  C     -104.837     -46.245     127.193
  N     -104.067     -45.890     126.003
  C     -102.827     -45.305     126.240
  O     -102.382     -45.093     127.367
  N     -102.122     -44.934     125.128
  C     -102.549     -45.040     123.838
  O     -101.889     -44.635     122.889
  C     -103.875     -45.649     123.650
  C     -104.566     -46.037     124.725
  O     -109.425     -49.898     124.912
  O     -107.772     -49.604     122.973
  H     -109.999     -50.065     124.142
  H     -106.114     -45.725     129.277
  H     -101.219     -44.511     125.278
  H     -104.246     -45.747     122.637
  H     -105.551     -46.479     124.613
  H     -104.172     -46.168     128.063
  H     -106.020     -44.433     126.763
  H     -107.266     -46.227     125.841
  H     -106.860     -47.665     128.521
  H     -106.927     -49.695     127.115
  H     -108.467     -48.811     127.023
  P     -109.309     -44.725     126.752
  C     -108.849     -43.090     128.762
  O     -108.835     -43.321     127.362
  O     -110.752     -44.981     127.392
  O     -109.243     -44.841     125.268
  H     -110.689     -45.366     128.283
  H     -108.498     -42.099     128.964
  H     -108.212     -43.800     129.247
  H     -109.848     -43.197     129.131

 6  7  8  9  10  11  12  13  14  15  16  27  31  32  33  34  35 0
 6-311+G(2d,p)
 ****
 36  37 0
 6-311+G(2d,p)
 ****
 1  2  3  4  5  17  18  19  20  21  22  23  24  25 0
 3-21G
 ****
 26  28  29  30  38  39  40  41  42  43  44  45 0
 3-21G
 ****


