%nproc=1
%NoSave
%Mem=1900MB
#P OB98/GEN NMR

erre ene a

0 1
  C      -32.638      85.557      89.738
  O      -31.549      84.676      89.951
  H      -33.180      85.679      90.680
  H      -33.320      85.143      88.988
  H      -32.270      86.534      89.412
  P      -30.639      84.333      88.672
  C      -31.186      83.565      86.260
  O      -31.681      83.804      87.571
  C      -32.117      82.624      85.498
  O      -32.035      81.294      86.044
  C      -33.589      83.018      85.550
  O      -33.875      83.999      84.565
  C      -34.256      81.689      85.221
  O      -34.237      81.480      83.795
  C      -33.337      80.667      85.912
  N      -36.396      77.438      88.483
  C      -36.325      77.754      87.168
  N      -35.527      78.660      86.564
  C      -34.731      79.267      87.461
  C      -34.694      79.052      88.831
  C      -35.573      78.082      89.344
  N      -35.644      77.765      90.684
  N      -33.753      79.863      89.433
  C      -33.189      80.512      88.433
  N      -33.770      80.216      87.223
  O      -29.457      83.463      88.935
  O      -30.294      85.806      88.141
  H      -34.843      82.140      83.405
  H      -31.077      86.384      88.204
  H      -37.002      77.206      86.517
  H      -32.350      81.192      88.527
  H      -33.202      79.764      85.301
  H      -35.301      81.654      85.535
  H      -33.892      83.332      86.556
  H      -31.764      82.571      84.459
  H      -30.178      83.131      86.308
  H      -36.430      77.206      90.986
  H      -35.123      78.339      91.332
  H      -31.121      84.532      85.748
  P      -34.853      85.233      84.885
  C      -37.375      85.423      85.353
  O      -36.334      84.616      84.815
  O      -34.613      86.444      84.054
  O      -34.652      85.502      86.447
  H      -34.996      86.387      86.685
  H      -38.310      84.913      85.252
  H      -37.416      86.352      84.823
  H      -37.182      85.611      86.388

 6  7  8  9  10  11  12  13  14  15  25  28  32  33  34  35 0
 6-311+G(2d,p)
 ****
 36  39  40 0
 6-311+G(2d,p)
 ****
 1  2  3  4  5  16  17  18  19  20  21  22  23  24 0
 3-21G
 ****
 26  27  29  30  31  37  38  41  42  43  44  45  46  47 0
 3-21G
 ****
 48 0
 3-21G
 ****


