%nproc=1
%NoSave
%Mem=1900MB
#P OB98/GEN NMR

erre ene a

0 1
  C       46.411     285.735     128.268
  O       47.376     286.085     129.268
  P       47.135     287.427     130.109
  C       49.241     288.402     128.935
  O       48.511     288.247     130.143
  C       50.317     289.480     129.099
  O       49.737     290.790     129.284
  C       51.229     289.254     130.297
  O       52.273     288.337     130.000
  C       51.806     290.648     130.491
  O       52.873     290.872     129.547
  C       50.606     291.544     130.166
  N       50.793     294.288     134.411
  C       51.740     294.114     133.421
  N       52.907     294.776     133.582
  N       51.560     293.361     132.368
  C       50.340     292.776     132.331
  C       49.321     292.868     133.249
  C       49.538     293.693     134.418
  O       48.742     293.872     135.333
  N       48.237     292.124     132.869
  C       48.589     291.597     131.712
  N       49.865     291.948     131.350
  O       47.008     286.887     131.612
  O       45.927     288.201     129.697
  H       53.241     291.753     129.746
  H       46.452     287.492     132.135
  H       50.986     294.876     135.204
  H       47.961     290.960     131.104
  H       50.897     292.460     129.639
  H       52.234     290.787     131.488
  H       53.093     295.412     134.341
  H       50.656     288.957     131.183
  H       53.601     294.687     132.850
  H       50.924     289.496     128.184
  H       48.569     288.671     128.116
  H       49.677     287.438     128.658
  P       52.008     286.782     130.291
  C       54.452     286.671     131.161
  O       53.451     286.091     130.348
  O       51.384     286.264     128.912
  O       51.105     286.509     131.444
  H       50.755     285.539     129.082
  H       55.302     285.988     131.207
  H       54.080     286.837     132.176
  H       54.784     287.618     130.728
  H       46.704     284.822     127.794
  H       46.356     286.515     127.537
  H       45.453     285.607     128.726

 3  4  5  6  7  8  9  10  11  12  23  26  30  31 0
 6-311+G(2d,p)
 ****
 33  35  36  37  38 0
 6-311+G(2d,p)
 ****
 1  2  13  14  15  16  17  18  19  20  21  22  24  25 0
 3-21G
 ****
 27  28  29  32  34  39  40  41  42  43  44  45  46  47  48  49 0
 3-21G
 ****


