%nproc=1
%NoSave
%Mem=1900MB
#P OB98/GEN NMR

erre ene a

0 1
  C      552.203    -899.160    -307.136
  O      552.526    -898.040    -307.928
  H      551.337    -898.940    -306.503
  H      551.962    -900.000    -307.804
  H      553.052    -899.450    -306.515
  P      552.904    -896.690    -307.123
  C      555.147    -896.100    -308.301
  O      554.514    -896.590    -307.119
  C      556.584    -895.710    -308.005
  O      556.559    -894.550    -307.112
  C      557.405    -896.790    -307.293
  O      558.658    -896.990    -307.981
  C      557.699    -896.250    -305.902
  O      558.958    -896.630    -305.415
  C      557.597    -894.730    -306.134
  N      559.438    -891.470    -302.691
  C      559.788    -891.700    -303.968
  N      559.207    -892.530    -304.868
  C      558.106    -893.110    -304.336
  C      557.599    -892.940    -303.051
  C      558.331    -892.070    -302.202
  N      557.994    -891.880    -300.886
  N      556.451    -893.690    -302.856
  C      556.315    -894.360    -304.010
  N      557.280    -894.030    -304.922
  O      552.542    -897.070    -305.603
  O      552.171    -895.480    -307.580
  H      558.999    -897.610    -305.385
  H      551.855    -896.450    -305.283
  H      560.677    -891.160    -304.315
  H      555.543    -895.090    -304.207
  H      558.523    -894.310    -306.554
  H      556.916    -896.610    -305.238
  H      556.859    -897.760    -307.235
  H      557.050    -895.400    -308.923
  H      554.593    -895.210    -308.667
  H      558.637    -891.340    -300.299
  H      557.247    -892.420    -300.477
  H      555.112    -896.880    -309.060
  P      558.593    -897.830    -309.336
  C      558.859    -895.880    -311.036
  O      557.991    -896.880    -310.509
  O      557.427    -898.890    -309.104
  O      559.884    -898.530    -309.697
  H      557.753    -899.800    -309.195
  H      558.347    -895.327    -311.795
  H      559.725    -896.346    -311.457
  H      559.157    -895.217    -310.251

 6  7  8  9  10  11  12  13  14  15  25  28  32  33  34  35 0
 6-311+G(2d,p)
 ****
 36  39  40 0
 6-311+G(2d,p)
 ****
 1  2  3  4  5  16  17  18  19  20  21  22  23  24 0
 3-21G
 ****
 26  27  29  30  31  37  38  41  42  43  44  45  46  47  48 0
 3-21G
 ****


