%nproc=1
%NoSave
%Mem=1900MB
#P OB98/GEN NMR

erre ene a

0 1
  C      -13.239     225.704      27.579
  O      -13.564     225.801      26.208
  H      -13.949     226.280      28.178
  H      -13.294     224.655      27.883
  H      -12.222     226.071      27.753
  P      -13.577     227.272      25.569
  C      -16.154     227.347      25.218
  O      -14.868     227.305      24.615
  C      -17.005     226.205      24.672
  O      -17.118     226.314      23.233
  C      -16.421     224.821      24.937
  O      -16.717     224.346      26.239
  C      -17.135     224.004      23.875
  O      -18.487     223.743      24.289
  C      -17.119     224.969      22.679
  N      -14.790     221.906      19.302
  C      -15.976     221.808      19.941
  N      -16.533     222.676      20.809
  C      -15.741     223.744      20.989
  C      -14.511     223.988      20.400
  C      -14.028     223.003      19.521
  N      -12.804     223.085      18.892
  N      -13.986     225.185      20.848
  C      -14.895     225.661      21.676
  N      -15.959     224.811      21.818
  O      -12.361     227.246      24.528
  O      -13.494     228.405      26.537
  H      -18.887     224.604      24.516
  H      -12.136     228.153      24.245
  H      -16.550     220.909      19.731
  H      -14.824     226.606      22.201
  H      -18.009     224.871      22.047
  H      -16.661     223.034      23.698
  H      -15.342     224.797      24.742
  H      -18.014     226.294      25.091
  H      -16.630     228.306      24.982
  H      -12.484     222.265      18.401
  H      -12.170     223.821      19.161
  H      -16.052     227.253      26.304
  P      -15.991     222.995      26.720
  C      -18.019     221.418      26.344
  O      -17.147     222.035      27.281
  O      -15.218     223.457      28.041
  O      -15.074     222.389      25.707
  H      -14.391     222.953      28.153
  H      -18.731     220.813      26.865
  H      -17.450     220.805      25.677
  H      -18.533     222.172      25.785

 6  7  8  9  10  11  12  13  14  15  25  28  32  33  34  35 0
 6-311+G(2d,p)
 ****
 36  39  40 0
 6-311+G(2d,p)
 ****
 1  2  3  4  5  16  17  18  19  20  21  22  23  24 0
 3-21G
 ****
 26  27  29  30  31  37  38  41  42  43  44  45  46  47 0
 3-21G
 ****
 48 0
 3-21G
 ****


