%nproc=1
%NoSave
%Mem=1900MB
#P OB98/GEN NMR

erre ene a

0 1
  C      -68.660    -191.406     236.723
  O      -67.730    -190.802     235.850
  H      -68.384    -192.453     236.858
  H      -69.666    -191.362     236.300
  H      -68.644    -190.911     237.699
  P      -67.945    -189.270     235.432
  C      -67.535    -189.824     232.944
  O      -67.134    -189.043     234.066
  C      -66.548    -189.631     231.785
  O      -66.816    -188.337     231.189
  C      -65.085    -189.655     232.250
  O      -64.286    -190.580     231.520
  C      -64.686    -188.185     232.222
  O      -63.304    -187.958     232.044
  C      -65.580    -187.603     231.121
  N      -65.825    -186.168     231.258
  C      -64.901    -185.305     230.679
  O      -63.904    -185.652     230.051
  N      -65.161    -183.966     230.835
  C      -66.217    -183.427     231.509
  O      -66.399    -182.218     231.613
  C      -67.142    -184.391     232.123
  C      -66.907    -185.694     231.974
  O      -67.663    -188.266     236.498
  O      -69.473    -189.209     234.956
  H      -63.105    -188.116     231.095
  H      -70.010    -188.769     235.643
  H      -64.508    -183.329     230.407
  H      -67.984    -183.995     232.675
  H      -67.571    -186.434     232.413
  H      -65.136    -187.770     230.140
  H      -64.966    -187.734     233.183
  H      -65.010    -190.022     233.282
  H      -66.746    -190.393     231.025
  H      -68.536    -189.496     232.648
  H      -67.574    -190.881     233.226
  P      -63.446    -191.775     232.160
  C      -61.173    -191.025     231.069
  O      -62.154    -192.035     231.252
  O      -64.228    -192.974     232.576
  O      -62.813    -191.123     233.493
  H      -62.748    -191.846     234.148
  H      -60.395    -191.394     230.433
  H      -60.759    -190.753     232.018
  H      -61.625    -190.166     230.618

 6  7  8  9  10  11  12  13  14  15  16  26  31  32  33  34  35 0
 6-311+G(2d,p)
 ****
 36  37 0
 6-311+G(2d,p)
 ****
 1  2  3  4  5  17  18  19  20  21  22  23  24  25 0
 3-21G
 ****
 27  28  29  30  38  39  40  41  42  43  44  45 0
 3-21G
 ****


