%nproc=1
%NoSave
%Mem=1900MB
#P OB98/GEN NMR

erre ene a

0 1
  C      233.529    -639.440    -655.451
  O      233.752    -638.442    -656.432
  H      233.846    -640.406    -655.853
  H      232.462    -639.493    -655.205
  H      234.111    -639.221    -654.549
  P      233.287    -636.953    -656.051
  C      235.455    -635.902    -657.005
  O      234.038    -635.974    -657.079
  C      236.001    -635.016    -658.122
  O      235.804    -635.632    -659.417
  C      235.364    -633.628    -658.196
  O      235.985    -632.743    -657.279
  C      235.628    -633.254    -659.647
  O      236.982    -632.785    -659.820
  C      235.429    -634.601    -660.371
  N      231.993    -633.256    -663.816
  C      233.250    -632.751    -663.578
  N      233.652    -631.714    -664.339
  N      234.052    -633.212    -662.647
  C      233.502    -634.210    -661.917
  C      232.270    -634.797    -662.061
  C      231.420    -634.316    -663.124
  O      230.322    -634.774    -663.450
  N      232.083    -635.801    -661.144
  C      233.188    -635.788    -660.413
  N      234.084    -634.844    -660.851
  O      234.040    -636.677    -654.662
  O      231.819    -636.752    -655.916
  H      237.095    -632.470    -660.734
  H      233.444    -636.161    -654.084
  H      231.437    -632.882    -664.567
  H      233.392    -636.458    -659.590
  H      236.088    -634.703    -661.241
  H      234.970    -632.448    -659.982
  H      232.993    -631.138    -664.856
  H      234.282    -633.690    -658.025
  H      234.541    -631.292    -664.101
  H      237.090    -634.931    -657.975
  H      235.865    -636.920    -657.116
  H      235.755    -635.498    -656.031
  P      235.040    -631.931    -656.268
  C      237.137    -631.302    -654.873
  O      235.947    -630.848    -655.499
  O      234.712    -633.014    -655.126
  O      233.781    -631.392    -656.883
  H      233.789    -633.338    -655.239
  H      237.632    -630.476    -654.406
  H      237.783    -631.736    -655.607
  H      236.893    -632.036    -654.134

 6  7  8  9  10  11  12  13  14  15  26  29  33  34 0
 6-311+G(2d,p)
 ****
 36  38  39  40  41 0
 6-311+G(2d,p)
 ****
 1  2  3  4  5  16  17  18  19  20  21  22  23  24  25 0
 3-21G
 ****
 27  28  30  31  32  35  37  42  43  44  45  46  47 0
 3-21G
 ****
 48  49 0
 3-21G
 ****


