%nproc=1
%NoSave
%Mem=1900MB
#P OB98/GEN NMR

erre ene a

0 1
  C      -37.331     252.789     303.512
  O      -37.247     251.730     304.442
  H      -36.582     253.543     303.773
  H      -38.319     253.254     303.551
  H      -37.126     252.429     302.501
  P      -38.250     250.489     304.282
  C      -40.383     251.953     304.413
  O      -39.586     250.963     305.043
  C      -41.611     252.260     305.264
  O      -42.617     251.232     305.127
  C      -41.350     252.340     306.764
  O      -40.668     253.517     307.165
  C      -42.776     252.293     307.282
  O      -43.405     253.569     307.080
  C      -43.388     251.212     306.361
  N      -43.362     249.878     306.961
  C      -44.590     249.352     307.374
  O      -45.628     249.998     307.237
  N      -44.614     248.112     307.967
  C      -43.505     247.465     308.152
  N      -43.587     246.244     308.749
  C      -42.185     247.991     307.752
  C      -42.187     249.187     307.167
  O      -37.714     249.156     304.696
  O      -38.715     250.544     302.751
  H      -43.519     253.679     306.118
  H      -39.331     249.788     302.597
  H      -41.289     247.427     307.957
  H      -41.255     249.643     306.853
  H      -44.423     251.461     306.100
  H      -42.840     252.065     308.347
  H      -40.822     251.445     307.116
  H      -42.051     253.192     304.883
  H      -44.504     245.910     309.013
  H      -40.672     251.582     303.425
  H      -42.769     245.706     309.003
  H      -39.808     252.875     304.292
  P      -39.489     253.344     308.245
  C      -40.792     253.481     310.503
  O      -39.961     254.131     309.554
  O      -38.315     254.246     307.645
  O      -39.059     251.931     308.495
  H      -37.665     253.695     307.167
  H      -41.007     254.152     311.308
  H      -40.290     252.617     310.884
  H      -41.706     253.184     310.033

 6  7  8  9  10  11  12  13  14  15  16  26  30  31  32  33  35 0
 6-311+G(2d,p)
 ****
 37  38 0
 6-311+G(2d,p)
 ****
 1  2  3  4  5  17  18  19  20  21  22  23  24  25 0
 3-21G
 ****
 27  28  29  34  36  39  40  41  42  43  44  45  46 0
 3-21G
 ****


