%nproc=1
%NoSave
%Mem=1900MB
#P OB98/GEN NMR

erre ene a

0 1
  C      158.855     122.541     -34.299
  O      160.171     122.735     -34.778
  H      158.509     121.555     -34.619
  H      158.191     123.301     -34.717
  H      158.836     122.585     -33.206
  P      160.938     124.050     -34.261
  C      160.884     125.641     -36.347
  O      161.600     124.699     -35.569
  C      161.400     125.651     -37.787
  O      162.770     126.121     -37.786
  C      161.379     124.279     -38.460
  O      161.033     124.452     -39.835
  C      162.816     123.802     -38.343
  O      163.138     122.833     -39.340
  C      163.588     125.125     -38.433
  N      164.910     125.039     -37.818
  C      165.892     124.342     -38.531
  O      165.617     123.819     -39.611
  N      167.144     124.217     -37.986
  C      167.379     124.683     -36.799
  N      168.636     124.508     -36.306
  C      166.359     125.378     -35.988
  C      165.166     125.528     -36.556
  O      162.181     123.413     -33.479
  O      160.095     124.969     -33.444
  H      163.019     123.254     -40.221
  H      162.580     122.653     -33.934
  H      166.600     125.736     -34.997
  H      164.360     126.035     -36.036
  H      163.714     125.427     -39.482
  H      162.975     123.337     -37.362
  H      160.686     123.578     -37.994
  H      160.818     126.382     -38.358
  H      169.300     124.009     -36.884
  H      160.984     126.643     -35.917
  H      168.913     124.783     -35.376
  H      159.826     125.364     -36.325
  P      159.498     124.676     -40.235
  C      159.105     122.734     -41.884
  O      159.264     124.136     -41.727
  O      158.947     126.036     -39.962
  O      158.734     123.572     -39.350
  H      157.898     123.966     -39.035
  H      158.957     122.505     -42.919
  H      158.256     122.406     -41.322
  H      159.982     122.234     -41.530

 6  7  8  9  10  11  12  13  14  15  16  26  30  31  32  33  35 0
 6-311+G(2d,p)
 ****
 37  38 0
 6-311+G(2d,p)
 ****
 1  2  3  4  5  17  18  19  20  21  22  23  24  25 0
 3-21G
 ****
 27  28  29  34  36  39  40  41  42  43  44  45  46 0
 3-21G
 ****


