%nproc=1
%NoSave
%Mem=1900MB
#P OB98/GEN NMR

erre ene a

0 1
  C     -900.854    1728.261     847.526
  O     -899.697    1727.569     847.056
  P     -898.277    1728.097     847.581
  C     -897.847    1729.014     845.182
  O     -897.340    1728.295     846.279
  C     -896.714    1729.477     844.280
  O     -895.734    1730.180     845.038
  C     -895.959    1728.349     843.564
  O     -896.705    1727.807     842.501
  C     -894.677    1729.076     843.186
  O     -894.918    1729.864     841.990
  C     -894.440    1730.013     844.404
  N     -889.555    1729.955     845.946
  C     -890.170    1730.592     844.944
  N     -891.479    1730.551     844.552
  C     -892.144    1729.739     845.378
  C     -891.663    1728.989     846.455
  C     -890.315    1729.101     846.725
  N     -889.677    1728.468     847.759
  N     -892.677    1728.249     847.030
  C     -893.746    1728.536     846.322
  N     -893.491    1729.431     845.348
  O     -897.655    1726.792     848.289
  O     -898.310    1729.285     848.508
  H     -894.127    1730.431     841.863
  H     -897.106    1727.050     849.061
  H     -889.541    1731.251     844.337
  H     -894.751    1728.124     846.530
  H     -894.072    1730.988     844.092
  H     -893.838    1728.375     842.948
  H     -895.710    1727.546     844.304
  H     -897.145    1730.164     843.503
  H     -898.412    1729.894     845.548
  H     -888.655    1728.491     847.811
  H     -890.201    1727.758     848.246
  H     -898.566    1728.379     844.626
  P     -896.958    1726.227     842.491
  C     -897.170    1726.275     839.940
  O     -897.800    1725.974     841.157
  O     -898.043    1726.065     843.666
  O     -895.711    1725.394     842.634
  H     -898.784    1726.690     843.544
  H     -897.849    1726.029     839.118
  H     -896.241    1725.701     839.839
  H     -896.952    1727.347     839.870
  H     -901.731    1727.815     847.106
  H     -900.800    1729.288     847.231
  H     -900.898    1728.198     848.593

 3  4  5  6  7  8  9  10  11  12  22  25  29  30  31  32 0
 6-311+G(2d,p)
 ****
 33  36  37 0
 6-311+G(2d,p)
 ****
 1  2  13  14  15  16  17  18  19  20  21  23  24  26 0
 3-21G
 ****
 27  28  34  35  38  39  40  41  42  43  44  45  46  47  48 0
 3-21G
 ****


