%nproc=1
%NoSave
%Mem=1900MB
#P OB98/GEN NMR

erre ene a

0 1
  C      237.034     -39.491     126.106
  O      237.616     -38.702     127.121
  P      239.163     -38.313     127.145
  C      239.546     -40.304     128.777
  O      240.000     -39.602     127.620
  C      239.805     -41.816     128.697
  O      239.268     -42.332     127.460
  C      241.309     -42.097     128.667
  O      242.046     -42.144     129.872
  C      241.464     -43.313     127.765
  O      241.596     -44.529     128.503
  C      240.179     -43.315     126.941
  N      241.958     -45.105     122.545
  C      241.667     -45.794     123.706
  N      242.083     -47.077     123.759
  N      241.051     -45.256     124.727
  C      240.780     -43.938     124.565
  C      241.007     -43.156     123.454
  C      241.653     -43.774     122.319
  O      242.006     -43.178     121.301
  N      240.674     -41.848     123.676
  C      240.282     -41.821     124.935
  N      240.368     -43.059     125.527
  O      239.515     -36.979     127.726
  O      239.504     -38.254     125.569
  H      241.625     -45.263     127.867
  H      240.168     -37.552     125.436
  H      242.507     -45.552     121.819
  H      239.963     -40.934     125.469
  H      239.668     -44.282     127.026
  H      242.372     -43.227     127.158
  H      242.690     -47.477     123.054
  H      241.770     -41.268     128.109
  H      242.041     -47.552     124.651
  H      239.272     -42.347     129.494
  H      238.475     -40.097     128.884
  H      240.041     -39.902     129.666
  P      243.147     -41.091     130.353
  C      244.968     -42.884     130.443
  O      244.593     -41.626     129.917
  O      243.178     -41.251     131.950
  O      242.866     -39.670     129.985
  H      243.540     -40.436     132.356
  H      246.050     -43.005     130.336
  H      244.466     -43.683     129.887
  H      244.705     -42.963     131.505
  H      235.990     -39.616     126.306
  H      237.510     -40.449     126.082
  H      237.161     -39.006     125.161

 3  4  5  6  7  8  9  10  11  12  23  26  30  31 0
 6-311+G(2d,p)
 ****
 33  35  36  37  38 0
 6-311+G(2d,p)
 ****
 1  2  13  14  15  16  17  18  19  20  21  22  24  25 0
 3-21G
 ****
 27  28  29  32  34  39  40  41  42  43  44  45  46  47  48  49 0
 3-21G
 ****


