%nproc=1
%NoSave
%Mem=1900MB
#P OB98/GEN NMR

erre ene a

0 1
  C      546.636     209.476     886.836
  O      545.376     208.900     886.547
  P      545.280     207.966     885.227
  C      545.017     210.033     883.650
  O      544.482     208.816     884.125
  C      544.687     210.206     882.181
  O      545.261     209.111     881.403
  C      543.170     210.188     881.852
  O      542.620     211.469     882.089
  C      543.184     209.781     880.387
  O      543.460     210.912     879.535
  C      544.327     208.758     880.344
  N      543.826     204.281     878.035
  C      544.143     205.515     877.502
  N      544.420     205.560     876.171
  N      544.198     206.610     878.214
  C      543.891     206.440     879.512
  C      543.534     205.238     880.159
  C      543.536     204.045     879.375
  O      543.365     202.908     879.809
  N      543.290     205.454     881.485
  C      543.503     206.746     881.667
  N      543.900     207.389     880.510
  O      544.257     206.817     885.672
  O      546.602     207.418     884.762
  H      542.926     211.676     879.819
  H      544.744     206.001     885.945
  H      543.817     203.473     877.440
  H      543.409     207.259     882.613
  H      544.884     208.800     879.407
  H      542.207     209.378     880.065
  H      544.363     204.760     875.571
  H      542.658     209.437     882.452
  H      544.656     206.459     875.776
  H      545.127     211.139     881.812
  H      546.088     210.040     883.788
  H      544.590     210.886     884.236
  P      541.885     211.722     883.506
  C      539.644     210.496     883.040
  O      540.303     211.734     883.210
  O      542.228     213.233     883.829
  O      542.334     210.804     884.591
  H      542.356     213.354     884.813
  H      538.587     210.612     883.382
  H      540.103     209.680     883.631
  H      539.627     210.219     881.982
  H      546.563     210.065     887.726
  H      546.939     210.099     886.020
  H      547.358     208.700     886.980

 3  4  5  6  7  8  9  10  11  12  23  26  30  31 0
 6-311+G(2d,p)
 ****
 33  35  36  37  38 0
 6-311+G(2d,p)
 ****
 1  2  13  14  15  16  17  18  19  20  21  22  24  25 0
 3-21G
 ****
 27  28  29  32  34  39  40  41  42  43  44  45  46  47  48  49 0
 3-21G
 ****


