%nproc=1
%NoSave
%Mem=1900MB
#P OB98/GEN NMR

erre ene a

0 1
  C     -234.928    -263.068    -159.766
  O     -233.645    -262.704    -160.267
  P     -232.824    -263.518    -161.366
  C     -230.595    -262.299    -162.055
  O     -231.269    -263.195    -161.181
  C     -230.876    -260.839    -161.672
  O     -230.429    -260.621    -160.299
  C     -230.116    -259.842    -162.555
  O     -230.891    -258.713    -162.938
  C     -228.853    -259.575    -161.754
  O     -228.192    -258.374    -162.124
  C     -229.368    -259.644    -160.316
  N     -225.572    -257.981    -157.333
  C     -226.289    -257.300    -158.295
  N     -225.949    -256.011    -158.507
  N     -227.251    -257.839    -159.001
  C     -227.438    -259.153    -158.743
  C     -226.780    -259.941    -157.827
  C     -225.755    -259.322    -157.013
  O     -225.103    -259.873    -156.133
  N     -227.253    -261.229    -157.845
  C     -228.180    -261.225    -158.782
  N     -228.332    -259.983    -159.354
  O     -233.362    -263.462    -162.757
  O     -232.931    -265.047    -160.866
  H     -228.812    -257.634    -161.979
  H     -232.928    -265.601    -161.676
  H     -224.859    -257.509    -156.802
  H     -228.774    -262.082    -159.078
  H     -229.785    -258.690    -159.983
  H     -228.156    -260.397    -161.952
  H     -225.146    -255.574    -158.091
  H     -229.842    -260.300    -163.513
  H     -226.321    -255.587    -159.360
  H     -231.956    -260.666    -161.709
  H     -230.991    -262.503    -163.057
  H     -229.525    -262.504    -162.074
  P     -231.551    -258.390    -164.359
  C     -234.007    -257.787    -163.928
  O     -232.699    -257.294    -164.151
  O     -232.378    -259.704    -164.744
  O     -230.573    -258.059    -165.439
  H     -232.022    -260.086    -165.569
  H     -234.718    -256.973    -164.070
  H     -234.091    -258.160    -162.904
  H     -234.244    -258.591    -164.632
  H     -235.245    -262.348    -159.040
  H     -234.872    -264.034    -159.309
  H     -235.631    -263.095    -160.572

 3  4  5  6  7  8  9  10  11  12  23  26  30  31 0
 6-311+G(2d,p)
 ****
 33  35  36  37  38 0
 6-311+G(2d,p)
 ****
 1  2  13  14  15  16  17  18  19  20  21  22  24  25 0
 3-21G
 ****
 27  28  29  32  34  39  40  41  42  43  44  45  46  47  48  49 0
 3-21G
 ****


