%nproc=1
%NoSave
%Mem=1900MB
#P OB98/GEN NMR

erre ene a

0 1
  C      -78.373     -83.272     191.525
  O      -77.878     -83.231     190.206
  H      -77.755     -83.963     192.107
  H      -79.404     -83.631     191.541
  H      -78.313     -82.280     191.985
  P      -78.711     -82.436     189.084
  C      -79.768     -84.557     188.094
  O      -80.013     -83.352     188.812
  C      -80.439     -85.756     188.764
  O      -79.899     -86.990     188.214
  C      -80.252     -85.803     190.288
  O      -81.506     -86.086     190.916
  C      -79.290     -86.972     190.494
  O      -79.399     -87.536     191.796
  C      -79.682     -87.885     189.324
  N      -78.659     -88.885     189.015
  C      -78.701     -90.065     189.767
  O      -79.539     -90.203     190.664
  N      -77.767     -91.039     189.520
  C      -76.840     -90.834     188.632
  N      -75.937     -91.829     188.440
  C      -76.736     -89.585     187.852
  C      -77.672     -88.666     188.085
  O      -77.930     -82.076     187.861
  O      -79.317     -81.174     189.854
  H      -80.239     -88.040     191.847
  H      -79.570     -80.478     189.195
  H      -75.940     -89.453     187.128
  H      -77.681     -87.720     187.546
  H      -80.621     -88.410     189.536
  H      -78.255     -86.620     190.360
  H      -79.850     -84.886     190.699
  H      -81.510     -85.747     188.495
  H      -76.042     -92.673     188.997
  H      -78.685     -84.716     188.032
  H      -75.172     -91.783     187.782
  H      -80.175     -84.440     187.078
  P      -82.266     -84.825     191.566
  C      -81.560     -85.359     194.005
  O      -81.495     -84.436     192.929
  O      -83.648     -85.452     192.072
  O      -82.482     -83.696     190.610
  H      -84.364     -85.243     191.437
  H      -81.009     -84.975     194.838
  H      -81.139     -86.294     193.699
  H      -82.581     -85.504     194.289

 6  7  8  9  10  11  12  13  14  15  16  26  30  31  32  33  35 0
 6-311+G(2d,p)
 ****
 37  38 0
 6-311+G(2d,p)
 ****
 1  2  3  4  5  17  18  19  20  21  22  23  24  25 0
 3-21G
 ****
 27  28  29  34  36  39  40  41  42  43  44  45  46 0
 3-21G
 ****


