%nproc=1
%NoSave
%Mem=1900MB
#P OB98/GEN NMR

erre ene a

0 1
  C      247.174      88.658     249.464
  O      247.816      89.056     250.658
  H      247.772      87.902     248.949
  H      246.201      88.227     249.713
  H      247.021      89.520     248.809
  P      249.286      89.685     250.515
  C      250.253      91.789     251.683
  O      249.549      90.564     251.837
  C      250.302      92.531     253.017
  O      249.045      93.233     253.195
  C      250.526      91.629     254.245
  O      251.698      92.042     254.954
  C      249.312      91.885     255.129
  O      249.634      91.962     256.517
  C      248.766      93.208     254.602
  N      245.235      95.539     257.445
  C      246.509      95.876     257.148
  N      247.361      95.271     256.299
  C      246.773      94.219     255.705
  C      245.478      93.765     255.888
  C      244.695      94.463     256.824
  N      243.415      94.087     257.170
  N      245.231      92.650     255.110
  C      246.375      92.408     254.498
  N      247.339      93.317     254.842
  O      249.102      90.784     249.363
  O      250.362      88.707     250.179
  H      250.068      91.119     256.750
  H      249.820      90.691     248.706
  H      246.899      96.750     257.664
  H      246.572      91.568     253.839
  H      249.259      94.073     255.064
  H      248.590      91.071     254.986
  H      250.605      90.569     253.982
  H      251.090      93.292     252.957
  H      249.738      92.417     250.944
  H      242.972      94.575     257.932
  H      243.048      93.225     256.792
  H      251.262      91.579     251.315
  P      253.058      91.245     254.626
  C      255.571      91.897     254.820
  O      254.259      92.024     255.351
  O      253.293      91.562     253.073
  O      252.981      89.778     254.891
  H      253.805      90.844     252.658
  H      256.252      92.472     255.411
  H      255.584      92.255     253.812
  H      255.865      90.868     254.837

 6  7  8  9  10  11  12  13  14  15  25  28  32  33  34  35 0
 6-311+G(2d,p)
 ****
 36  39  40 0
 6-311+G(2d,p)
 ****
 1  2  3  4  5  16  17  18  19  20  21  22  23  24 0
 3-21G
 ****
 26  27  29  30  31  37  38  41  42  43  44  45  46  47  48 0
 3-21G
 ****


