%nproc=1
%NoSave
%Mem=1900MB
#P OB98/GEN NMR

erre ene a

0 1
  C      -31.931     264.300    -624.609
  O      -32.271     263.403    -625.646
  H      -30.967     264.757    -624.842
  H      -31.848     263.768    -623.659
  H      -32.684     265.087    -624.533
  P      -33.611     262.543    -625.437
  C      -32.049     260.475    -625.734
  O      -33.066     261.105    -624.971
  C      -31.326     259.435    -624.885
  O      -30.688     260.058    -623.745
  C      -32.231     258.358    -624.294
  O      -32.614     257.364    -625.228
  C      -31.315     257.810    -623.214
  O      -30.304     256.987    -623.821
  C      -30.715     259.111    -622.650
  N      -31.485     259.655    -621.522
  C      -30.990     259.394    -620.242
  O      -29.957     258.746    -620.082
  N      -31.693     259.856    -619.153
  C      -32.789     260.533    -619.325
  N      -33.443     260.955    -618.215
  C      -33.339     260.837    -620.665
  C      -32.647     260.372    -621.699
  O      -34.112     262.264    -626.932
  O      -34.643     263.148    -624.541
  H      -29.732     256.660    -623.097
  H      -34.855     261.610    -626.924
  H      -34.265     261.388    -620.758
  H      -32.994     260.559    -622.711
  H      -29.682     258.956    -622.321
  H      -31.834     257.189    -622.484
  H      -33.118     258.800    -623.814
  H      -30.535     258.991    -625.504
  H      -33.072     260.681    -617.312
  H      -31.341     261.245    -626.066
  H      -34.375     261.358    -618.244
  H      -32.485     259.990    -626.611
  P      -34.138     256.869    -625.200
  C      -33.405     254.377    -625.018
  O      -34.156     255.447    -624.463
  O      -34.434     256.495    -626.729
  O      -35.120     257.880    -624.671
  H      -35.360     256.693    -626.968
  H      -33.524     253.505    -624.410
  H      -32.371     254.648    -625.054
  H      -33.755     254.172    -626.008

 6  7  8  9  10  11  12  13  14  15  16  26  30  31  32  33  35 0
 6-311+G(2d,p)
 ****
 37  38 0
 6-311+G(2d,p)
 ****
 1  2  3  4  5  17  18  19  20  21  22  23  24  25 0
 3-21G
 ****
 27  28  29  34  36  39  40  41  42  43  44  45  46 0
 3-21G
 ****


