%nproc=1
%NoSave
%Mem=1900MB
#P OB98/GEN NMR

erre ene a

0 1
  C       12.794     358.974    -751.624
  O       12.733     358.184    -752.799
  P       11.635     357.017    -752.977
  C       13.215     355.130    -753.783
  O       12.216     356.068    -754.141
  C       13.477     354.171    -754.952
  O       12.264     353.413    -755.206
  C       13.877     354.852    -756.266
  O       14.823     353.990    -756.930
  C       12.573     354.918    -757.026
  O       12.769     355.058    -758.426
  C       11.918     353.600    -756.601
  N       10.467     353.604    -756.796
  C        9.990     353.545    -758.106
  O       10.768     353.520    -759.051
  N        8.634     353.518    -758.307
  C        7.829     353.622    -757.290
  N        6.495     353.521    -757.545
  C        8.293     353.793    -755.900
  C        9.618     353.746    -755.734
  O       10.240     357.493    -753.190
  O       11.835     356.105    -751.673
  H       11.903     354.939    -758.876
  H       11.324     356.429    -750.893
  H        7.580     353.903    -755.098
  H       10.041     353.838    -754.737
  H       12.375     352.756    -757.148
  H       11.986     355.780    -756.681
  H       14.347     355.835    -756.100
  H       14.250     353.448    -754.639
  H        6.224     353.238    -758.475
  H       12.860     354.552    -752.923
  H        5.831     353.277    -756.804
  H       14.135     355.646    -753.490
  P       16.129     354.658    -757.587
  C       16.093     353.516    -759.916
  O       16.714     353.616    -758.667
  O       17.184     354.525    -756.376
  O       16.022     356.079    -758.003
  H       17.865     355.207    -756.479
  H       16.621     352.780    -760.509
  H       16.120     354.466    -760.442
  H       15.049     353.196    -759.801
  H       13.589     359.684    -751.713
  H       12.972     358.343    -750.779
  H       11.867     359.492    -751.494

 3  4  5  6  7  8  9  10  11  12  13  23  27  28  29  30  32 0
 6-311+G(2d,p)
 ****
 34  35 0
 6-311+G(2d,p)
 ****
 1  2  14  15  16  17  18  19  20  21  22  24  25  26 0
 3-21G
 ****
 31  33  36  37  38  39  40  41  42  43  44  45  46 0
 3-21G
 ****


