%nproc=1
%NoSave
%Mem=1900MB
#P OB98/GEN NMR

erre ene a

0 1
  C     -433.109     183.264     378.658
  O     -434.306     183.420     377.888
  P     -434.231     183.289     376.296
  C     -436.795     183.519     376.116
  O     -435.534     183.972     375.649
  C     -437.934     184.401     375.588
  O     -437.835     185.736     376.167
  C     -437.913     184.563     374.056
  O     -439.173     184.283     373.447
  C     -437.373     185.964     373.844
  O     -437.743     186.518     372.595
  C     -437.853     186.705     375.100
  N     -437.028     187.883     375.399
  C     -437.666     189.110     375.398
  O     -438.848     189.262     375.093
  N     -436.886     190.193     375.702
  C     -435.538     190.171     375.925
  O     -434.874     191.174     376.140
  C     -434.897     188.841     375.843
  C     -435.665     187.778     375.593
  O     -433.911     181.928     375.767
  O     -433.068     184.329     375.900
  H     -437.388     185.938     371.880
  H     -432.548     183.939     375.175
  H     -437.339     191.098     375.726
  H     -433.828     188.792     375.990
  H     -435.220     186.792     375.519
  H     -438.878     187.061     374.978
  H     -436.277     185.920     373.862
  H     -437.230     183.835     373.594
  H     -438.877     183.958     375.913
  H     -436.813     183.542     377.208
  H     -436.936     182.474     375.831
  P     -439.663     182.834     372.988
  C     -442.220     183.282     373.046
  O     -441.076     182.978     372.259
  O     -439.610     181.766     374.041
  O     -438.672     182.476     371.792
  H     -438.415     181.537     371.848
  H     -443.117     182.988     372.502
  H     -442.255     184.361     373.235
  H     -442.195     182.745     374.011
  H     -433.336     183.381     379.697
  H     -432.396     184.005     378.363
  H     -432.701     182.289     378.490

 3  4  5  6  7  8  9  10  11  12  13  23  28  29  30  31  32 0
 6-311+G(2d,p)
 ****
 33  34 0
 6-311+G(2d,p)
 ****
 1  2  14  15  16  17  18  19  20  21  22  24  25  26  27 0
 3-21G
 ****
 35  36  37  38  39  40  41  42  43  44  45 0
 3-21G
 ****


