%nproc=1
%NoSave
%Mem=1900MB
#P OB98/GEN NMR

erre ene a

0 1
  C      594.889      -2.702    -376.977
  O      595.572      -3.970    -376.839
  P      597.033      -4.005    -376.169
  C      596.582      -5.181    -373.872
  O      596.870      -3.979    -374.569
  C      597.702      -5.493    -372.883
  O      597.639      -4.608    -371.744
  C      597.655      -6.897    -372.294
  O      598.130      -7.877    -373.214
  C      598.543      -6.742    -371.069
  O      599.939      -6.871    -371.417
  C      598.227      -5.296    -370.622
  N      597.347      -5.254    -369.451
  C      597.848      -4.637    -368.308
  O      599.001      -4.188    -368.241
  N      597.013      -4.588    -367.242
  C      595.757      -5.133    -367.166
  O      595.061      -5.071    -366.154
  C      595.312      -5.847    -368.367
  C      596.119      -5.882    -369.435
  O      597.575      -2.527    -376.475
  O      597.970      -5.032    -376.713
  H      600.441      -6.638    -370.613
  H      598.548      -2.537    -376.527
  H      597.345      -4.111    -366.400
  H      594.329      -6.321    -368.346
  H      595.795      -6.408    -370.322
  H      599.148      -4.760    -370.375
  H      598.343      -7.496    -370.307
  H      596.629      -7.122    -371.970
  H      598.670      -5.324    -373.382
  H      596.498      -6.000    -374.594
  H      595.620      -5.075    -373.351
  P      597.260      -9.225    -373.336
  C      596.074      -8.556    -375.568
  O      595.981      -8.819    -374.184
  O      596.748      -9.384    -371.831
  O      598.061     -10.382    -373.844
  H      596.585      -8.524    -371.397
  H      596.867      -9.156    -376.043
  H      596.304      -7.487    -375.711
  H      595.118      -8.772    -376.060
  H      593.937      -2.858    -377.439
  H      595.476      -2.045    -377.584
  H      594.749      -2.265    -376.010

 3  4  5  6  7  8  9  10  11  12  13  23  28  29  30  31  32 0
 6-311+G(2d,p)
 ****
 33  34 0
 6-311+G(2d,p)
 ****
 1  2  14  15  16  17  18  19  20  21  22  24  25  26 0
 3-21G
 ****
 27  35  36  37  38  39  40  41  42  43  44  45 0
 3-21G
 ****


