%nproc=1
%NoSave
%Mem=1900MB
#P OB98/GEN NMR

erre ene a

0 1
  C      754.582     460.952     278.391
  O      754.610     459.850     279.278
  P      755.383     460.029     280.670
  C      757.777     460.940     281.263
  O      756.879     460.447     280.279
  C      759.066     461.444     280.605
  O      758.752     462.484     279.662
  C      760.077     462.048     281.571
  O      760.793     461.055     282.288
  C      760.938     462.875     280.610
  O      761.891     462.029     279.942
  C      759.883     463.388     279.606
  N      759.474     464.773     279.862
  C      760.419     465.750     279.583
  O      761.547     465.501     279.156
  N      760.030     467.041     279.843
  C      758.842     467.431     280.397
  O      758.570     468.599     280.650
  C      757.900     466.351     280.695
  C      758.256     465.092     280.416
  O      755.494     458.502     281.147
  O      754.684     460.938     281.621
  H      755.493     457.885     280.386
  H      761.362     461.445     279.349
  H      760.698     467.778     279.628
  H      756.951     466.612     281.140
  H      757.566     464.273     280.640
  H      760.283     463.325     278.584
  H      761.499     463.660     281.127
  H      759.567     462.720     282.272
  H      759.517     460.601     280.052
  H      758.022     460.125     281.969
  H      757.298     461.740     281.827
  P      761.667     461.564     283.547
  C      763.649     463.254     283.719
  O      762.918     462.347     282.927
  O      762.288     460.181     284.077
  O      760.871     462.315     284.567
  H      762.587     459.591     283.349
  H      764.640     463.402     283.264
  H      763.790     462.873     284.741
  H      763.128     464.212     283.760
  H      754.035     460.687     277.510
  H      755.583     461.219     278.122
  H      754.107     461.783     278.869

 3  4  5  6  7  8  9  10  11  12  13  24  28  29  30  31  32 0
 6-311+G(2d,p)
 ****
 33  34 0
 6-311+G(2d,p)
 ****
 1  2  14  15  16  17  18  19  20  21  22  23  25  26  27 0
 3-21G
 ****
 35  36  37  38  39  40  41  42  43  44  45 0
 3-21G
 ****


