%nproc=1
%NoSave
%Mem=1900MB
#P OB98/GEN NMR

erre ene a

0 1
  C      160.041      54.275     446.390
  O      158.989      55.168     446.076
  H      160.465      54.557     447.358
  H      160.824      54.341     445.630
  H      159.667      53.250     446.452
  P      158.086      54.786     444.810
  C      156.961      52.900     446.243
  O      157.583      53.272     445.021
  C      155.843      51.897     445.976
  O      154.881      52.436     445.048
  C      156.303      50.612     445.309
  O      157.017      49.769     446.187
  C      154.968      50.031     444.863
  O      154.330      49.299     445.916
  C      154.159      51.302     444.511
  N      153.932      51.417     443.082
  C      152.588      51.403     442.685
  O      151.696      51.318     443.530
  N      152.298      51.447     441.347
  C      153.261      51.474     440.480
  N      152.905      51.483     439.167
  C      154.689      51.488     440.855
  C      154.951      51.458     442.160
  O      159.170      54.651     443.641
  O      156.985      55.747     444.514
  H      155.036      48.782     446.358
  H      159.933      54.099     443.878
  H      155.454      51.525     440.093
  H      155.972      51.466     442.525
  H      153.183      51.287     445.012
  H      155.090      49.341     444.024
  H      156.893      50.842     444.411
  H      155.333      51.692     446.927
  H      151.916      51.417     438.953
  H      156.565      53.781     446.757
  H      153.565      51.425     438.405
  H      157.727      52.457     446.885
  P      158.414      49.113     445.758
  C      159.915      50.670     447.159
  O      159.518      50.279     445.848
  O      158.404      48.377     444.462
  O      158.789      48.204     447.023
  H      158.880      48.687     447.862
  H      160.648      51.447     447.093
  H      160.333      49.828     447.671
  H      159.063      51.028     447.698

 6  7  8  9  10  11  12  13  14  15  16  26  30  31  32  33  35 0
 6-311+G(2d,p)
 ****
 37  38 0
 6-311+G(2d,p)
 ****
 1  2  3  4  5  17  18  19  20  21  22  23  24  25 0
 3-21G
 ****
 27  28  29  34  36  39  40  41  42  43  44  45  46 0
 3-21G
 ****


