%nproc=1
%NoSave
%Mem=1900MB
#P OB98/GEN NMR

erre ene a

0 1
  C      297.326     567.895    -627.766
  O      298.297     566.938    -627.389
  H      296.443     567.390    -628.173
  H      297.024     568.462    -626.881
  H      297.736     568.580    -628.510
  P      298.844     565.966    -628.540
  C      301.148     565.917    -627.354
  O      300.087     565.155    -627.921
  C      301.541     565.329    -626.000
  O      300.576     565.771    -625.009
  C      301.594     563.790    -625.962
  O      302.901     563.352    -625.560
  C      300.607     563.405    -624.880
  O      301.064     562.332    -624.054
  C      300.430     564.696    -624.075
  N      297.826     563.232    -619.947
  C      299.151     563.382    -620.163
  N      299.775     563.880    -621.252
  C      298.881     564.270    -622.182
  C      297.502     564.193    -622.091
  C      296.973     563.628    -620.921
  N      295.622     563.420    -620.727
  N      296.918     564.677    -623.251
  C      297.927     564.996    -624.037
  N      299.139     564.743    -623.434
  O      299.530     566.974    -629.581
  O      297.807     565.122    -629.201
  H      301.193     561.562    -624.635
  H      299.233     566.770    -630.484
  H      299.803     563.054    -619.356
  H      297.848     565.353    -625.055
  H      301.206     564.805    -623.303
  H      299.664     563.099    -625.348
  H      301.326     563.331    -626.918
  H      302.514     565.753    -625.711
  H      300.818     566.950    -627.214
  H      295.347     562.908    -619.910
  H      294.994     563.619    -621.495
  H      302.000     565.917    -628.046
  P      303.734     562.491    -626.638
  C      305.786     563.984    -626.047
  O      305.289     562.672    -626.298
  O      303.557     563.339    -627.989
  O      303.257     561.085    -626.790
  H      303.629     562.754    -628.769
  H      306.834     563.934    -625.837
  H      305.274     564.405    -625.207
  H      305.623     564.598    -626.908

 6  7  8  9  10  11  12  13  14  15  25  28  32  33  34  35 0
 6-311+G(2d,p)
 ****
 36  39  40 0
 6-311+G(2d,p)
 ****
 1  2  3  4  5  16  17  18  19  20  21  22  23  24 0
 3-21G
 ****
 26  27  29  30  31  37  38  41  42  43  44  45  46  47  48 0
 3-21G
 ****


