%nproc=1
%NoSave
%Mem=1900MB
#P OB98/GEN NMR

erre ene a

0 1
  C     -120.991    -140.685      90.295
  O     -122.253    -140.082      90.106
  H     -120.997    -141.227      91.243
  H     -120.219    -139.912      90.339
  H     -120.769    -141.388      89.487
  P     -122.573    -139.495      88.649
  C     -121.449    -137.181      88.946
  O     -121.410    -138.442      88.299
  C     -121.347    -136.053      87.919
  O     -120.043    -136.117      87.285
  C     -122.408    -136.125      86.813
  O     -122.836    -134.798      86.495
  C     -121.650    -136.714      85.636
  O     -122.227    -136.361      84.381
  C     -120.254    -136.146      85.860
  N     -118.676    -137.860      81.392
  C     -119.692    -136.977      81.701
  N     -120.400    -136.480      80.665
  N     -119.989    -136.613      82.922
  C     -119.173    -137.160      83.855
  C     -118.140    -138.050      83.677
  C     -117.841    -138.468      82.324
  O     -116.970    -139.264      81.989
  N     -117.574    -138.401      84.878
  C     -118.266    -137.726      85.777
  N     -119.241    -136.955      85.205
  O     -123.854    -138.570      88.902
  O     -122.838    -140.516      87.591
  H     -121.745    -136.856      83.684
  H     -124.622    -138.930      88.420
  H     -118.500    -138.117      80.436
  H     -118.109    -137.764      86.846
  H     -120.151    -135.123      85.476
  H     -121.644    -137.809      85.712
  H     -120.197    -136.680      79.698
  H     -123.274    -136.730      87.088
  H     -121.126    -135.801      80.864
  H     -121.396    -135.093      88.448
  H     -120.608    -137.113      89.645
  H     -122.385    -137.089      89.507
  P     -124.418    -134.529      86.479
  C     -124.835    -134.867      83.945
  O     -125.060    -135.355      85.260
  O     -124.523    -133.005      85.999
  O     -125.077    -134.731      87.804
  H     -124.788    -132.439      86.749
  H     -125.317    -135.510      83.239
  H     -123.784    -134.845      83.748
  H     -125.235    -133.879      83.858

 6  7  8  9  10  11  12  13  14  15  26  29  33  34 0
 6-311+G(2d,p)
 ****
 36  38  39  40  41 0
 6-311+G(2d,p)
 ****
 1  2  3  4  5  16  17  18  19  20  21  22  23  24  25 0
 3-21G
 ****
 27  28  30  31  32  35  37  42  43  44  45  46  47 0
 3-21G
 ****
 48  49 0
 3-21G
 ****


