%nproc=1
%NoSave
%Mem=1900MB
#P OB98/GEN NMR

erre ene a

0 1
  C      457.106     226.853    -140.420
  O      458.272     227.618    -140.659
  H      456.240     227.518    -140.464
  H      457.145     226.399    -139.428
  H      456.992     226.075    -141.181
  P      459.686     226.866    -140.642
  C      459.832     226.275    -143.156
  O      460.323     227.092    -142.103
  C      459.867     227.038    -144.469
  O      458.726     227.906    -144.584
  C      461.103     227.927    -144.641
  O      462.212     227.155    -145.063
  C      460.601     228.897    -145.699
  O      460.623     228.264    -146.990
  C      459.153     229.132    -145.242
  N      459.878     234.098    -144.498
  C      460.248     233.291    -145.555
  N      460.948     233.895    -146.547
  N      459.976     232.017    -145.638
  C      459.331     231.543    -144.546
  C      458.929     232.227    -143.429
  C      459.186     233.659    -143.378
  O      458.864     234.404    -142.465
  N      458.366     231.391    -142.499
  C      458.387     230.208    -143.072
  N      458.981     230.243    -144.313
  O      459.673     225.434    -140.205
  O      460.601     227.780    -139.699
  H      460.236     228.898    -147.620
  H      460.569     227.470    -138.772
  H      460.134     235.070    -144.485
  H      457.996     229.296    -142.638
  H      458.475     229.307    -146.087
  H      461.205     229.799    -145.772
  H      461.415     234.781    -146.407
  H      461.326     228.493    -143.725
  H      461.268     233.319    -147.318
  H      459.796     226.309    -145.290
  H      458.802     225.991    -142.901
  H      460.432     225.363    -143.242
  P      463.702     227.758    -145.048
  C      463.985     226.492    -142.809
  O      464.537     226.779    -144.095
  O      463.786     229.202    -144.680
  O      464.290     227.428    -146.494
  H      464.095     228.119    -147.172
  H      464.639     225.831    -142.280
  H      463.028     226.028    -142.927
  H      463.874     227.402    -142.257

 6  7  8  9  10  11  12  13  14  15  26  29  33  34 0
 6-311+G(2d,p)
 ****
 36  38  39  40  41 0
 6-311+G(2d,p)
 ****
 1  2  3  4  5  16  17  18  19  20  21  22  23  24  25 0
 3-21G
 ****
 27  28  30  31  32  35  37  42  43  44  45  46  47 0
 3-21G
 ****
 48  49 0
 3-21G
 ****


