%nproc=1
%NoSave
%Mem=1900MB
#P OB98/GEN NMR

erre ene a

0 1
  C     -346.686     162.608     -94.853
  O     -345.512     161.878     -95.133
  H     -346.933     162.480     -93.797
  H     -347.514     162.224     -95.456
  H     -346.548     163.673     -95.053
  P     -344.748     162.144     -96.514
  C     -345.241     159.841     -97.571
  O     -344.250     160.721     -97.059
  C     -345.096     158.443     -96.958
  O     -345.811     158.407     -95.695
  C     -345.717     157.367     -97.854
  O     -345.091     156.099     -97.687
  C     -347.145     157.285     -97.338
  O     -347.779     156.042     -97.638
  C     -346.942     157.530     -95.846
  N     -351.758     156.846     -94.319
  C     -350.980     156.050     -95.137
  N     -351.565     154.923     -95.607
  N     -349.754     156.346     -95.480
  C     -349.328     157.535     -94.994
  C     -350.011     158.420     -94.194
  C     -351.356     158.068     -93.791
  O     -352.096     158.746     -93.085
  N     -349.253     159.530     -93.909
  C     -348.115     159.319     -94.542
  N     -348.101     158.107     -95.193
  O     -343.377     162.837     -96.057
  O     -345.485     162.986     -97.508
  H     -347.116     155.340     -97.515
  H     -342.994     163.348     -96.792
  H     -352.685     156.560     -94.061
  H     -347.270     159.993     -94.545
  H     -346.709     156.590     -95.328
  H     -347.730     158.071     -97.823
  H     -352.557     154.765     -95.528
  H     -345.697     157.637     -98.908
  H     -351.136     154.507     -96.439
  H     -344.043     158.238     -96.729
  H     -345.107     159.802     -98.653
  H     -346.239     160.244     -97.382
  P     -344.946     155.143     -98.965
  C     -345.167     152.615     -98.204
  O     -344.355     153.727     -98.519
  O     -343.757     155.804     -99.800
  O     -346.196     155.004     -99.777
  H     -344.088     156.130    -100.660
  H     -344.547     151.785     -97.935
  H     -345.761     152.355     -99.055
  H     -345.808     152.862     -97.383

 6  7  8  9  10  11  12  13  14  15  26  29  33  34 0
 6-311+G(2d,p)
 ****
 36  38  39  40  41 0
 6-311+G(2d,p)
 ****
 1  2  3  4  5  16  17  18  19  20  21  22  23  24  25 0
 3-21G
 ****
 27  28  30  31  32  35  37  42  43  44  45  46  47 0
 3-21G
 ****
 48  49 0
 3-21G
 ****


