%nproc=1
%NoSave
%Mem=1900MB
#P OB98/GEN NMR

erre ene a

0 1
  C     -261.942     602.353     240.490
  O     -262.284     602.484     241.855
  H     -261.257     601.510     240.381
  H     -261.438     603.261     240.140
  H     -262.829     602.164     239.881
  P     -263.421     603.533     242.267
  C     -262.996     604.898     244.418
  O     -263.388     603.647     243.866
  C     -262.185     604.692     245.705
  O     -262.955     603.841     246.607
  C     -260.824     604.005     245.492
  O     -259.943     604.491     246.514
  C     -261.195     602.550     245.725
  O     -260.069     601.720     245.857
  C     -262.108     602.723     246.943
  N     -262.909     601.556     247.295
  C     -262.273     600.507     247.953
  O     -261.083     600.496     248.267
  N     -263.061     599.428     248.255
  C     -264.391     599.304     247.984
  O     -265.054     598.324     248.305
  C     -265.007     600.440     247.282
  C     -264.252     601.496     246.979
  O     -264.773     603.293     241.681
  O     -262.821     604.943     241.798
  H     -263.242     605.219     240.960
  H     -260.346     600.861     246.243
  H     -262.618     598.661     248.733
  H     -266.059     600.369     247.040
  H     -264.679     602.354     246.469
  H     -261.518     603.023     247.817
  H     -261.754     602.165     244.870
  H     -260.388     604.210     244.510
  H     -262.067     605.661     246.206
  H     -263.902     605.471     244.638
  H     -262.399     605.444     243.679
  P     -258.418     604.919     246.240
  C     -257.930     604.568     248.757
  O     -257.783     605.418     247.626
  O     -258.257     605.895     245.118
  O     -257.646     603.551     245.930
  H     -256.869     603.737     245.368
  H     -257.463     605.021     249.607
  H     -257.467     603.624     248.556
  H     -258.970     604.419     248.959

 6  7  8  9  10  11  12  13  14  15  16  27  31  32  33  34  35 0
 6-311+G(2d,p)
 ****
 36  37 0
 6-311+G(2d,p)
 ****
 1  2  3  4  5  17  18  19  20  21  22  23  24  25 0
 3-21G
 ****
 26  28  29  30  38  39  40  41  42  43  44  45 0
 3-21G
 ****


