%nproc=1
%NoSave
%Mem=1900MB
#P OB98/GEN NMR

erre ene a

0 1
  C      262.394    -497.285    -816.986
  O      261.533    -496.853    -815.944
  H      263.342    -496.752    -816.905
  H      261.962    -497.065    -817.965
  H      262.585    -498.358    -816.901
  P      260.022    -497.379    -815.946
  C      259.036    -494.995    -815.669
  O      259.185    -496.295    -815.099
  C      258.010    -494.192    -814.875
  O      256.687    -494.762    -815.019
  C      258.287    -494.180    -813.376
  O      259.354    -493.318    -813.064
  C      256.935    -493.783    -812.835
  O      256.734    -492.368    -812.928
  C      255.980    -494.549    -813.789
  N      255.518    -495.808    -813.217
  C      254.695    -495.700    -812.077
  O      254.414    -494.598    -811.613
  N      254.250    -496.866    -811.493
  C      254.561    -498.021    -812.004
  N      254.084    -499.117    -811.362
  C      255.409    -498.173    -813.207
  C      255.840    -497.040    -813.763
  O      259.794    -498.798    -815.524
  O      259.532    -497.124    -817.451
  H      257.434    -491.960    -812.356
  H      259.719    -497.894    -818.010
  H      255.630    -499.153    -813.597
  H      256.467    -497.062    -814.641
  H      255.102    -493.929    -814.017
  H      256.821    -494.060    -811.784
  H      258.511    -495.208    -813.022
  H      257.991    -493.167    -815.281
  H      253.528    -498.986    -810.535
  H      258.683    -495.141    -816.699
  H      254.196    -500.066    -811.712
  H      259.988    -494.469    -815.705
  P      260.764    -493.889    -812.546
  C      260.411    -492.453    -810.421
  O      261.307    -492.819    -811.482
  O      261.734    -494.279    -813.614
  O      260.330    -495.123    -811.600
  H      260.027    -495.901    -812.154
  H      260.887    -491.738    -809.783
  H      260.156    -493.323    -809.853
  H      259.523    -492.025    -810.836

 6  7  8  9  10  11  12  13  14  15  16  26  30  31  32  33  35 0
 6-311+G(2d,p)
 ****
 37  38 0
 6-311+G(2d,p)
 ****
 1  2  3  4  5  17  18  19  20  21  22  23  24  25 0
 3-21G
 ****
 27  28  29  34  36  39  40  41  42  43  44  45  46 0
 3-21G
 ****


