%nproc=1
%NoSave
%Mem=1900MB
#P OB98/GEN NMR

erre ene a

0 1
  C      -36.037    -164.329     109.981
  O      -36.751    -163.844     108.864
  H      -36.612    -165.138     110.439
  H      -35.899    -163.537     110.722
  H      -35.065    -164.723     109.671
  P      -36.152    -162.603     108.045
  C      -38.051    -161.206     109.099
  O      -36.665    -161.270     108.779
  C      -38.570    -159.773     108.911
  O      -37.703    -158.888     109.664
  C      -38.554    -159.330     107.440
  O      -39.814    -158.825     107.000
  C      -37.347    -158.404     107.369
  O      -37.414    -157.433     106.345
  C      -37.258    -157.834     108.789
  N      -35.917    -157.385     109.164
  C      -35.495    -156.155     108.666
  O      -36.162    -155.413     107.948
  N      -34.226    -155.774     109.033
  C      -33.366    -156.488     109.811
  O      -32.242    -156.091     110.108
  C      -33.860    -157.790     110.283
  C      -35.092    -158.174     109.942
  O      -36.385    -162.631     106.572
  O      -34.589    -162.626     108.392
  H      -36.555    -156.958     106.339
  H      -34.090    -162.968     107.627
  H      -33.913    -154.878     108.691
  H      -33.195    -158.390     110.893
  H      -35.491    -159.130     110.272
  H      -37.935    -156.985     108.906
  H      -36.456    -159.013     107.174
  H      -38.385    -160.188     106.778
  H      -39.573    -159.703     109.346
  H      -38.171    -161.520     110.140
  H      -38.610    -161.890     108.451
  P      -40.581    -159.294     105.681
  C      -39.693    -157.580     103.893
  O      -39.695    -158.904     104.408
  O      -42.035    -158.954     105.617
  O      -40.463    -160.904     105.723
  H      -41.273    -161.250     105.302
  H      -39.041    -157.528     103.047
  H      -39.352    -156.904     104.649
  H      -40.685    -157.311     103.596

 6  7  8  9  10  11  12  13  14  15  16  26  31  32  33  34  35 0
 6-311+G(2d,p)
 ****
 36  37 0
 6-311+G(2d,p)
 ****
 1  2  3  4  5  17  18  19  20  21  22  23  24  25 0
 3-21G
 ****
 27  28  29  30  38  39  40  41  42  43  44  45 0
 3-21G
 ****


