%nproc=1
%NoSave
%Mem=1900MB
#P OB98/GEN NMR

erre ene a

0 1
  C     -431.090     473.443     717.964
  O     -431.796     472.319     717.425
  P     -433.354     472.089     717.770
  C     -433.076     470.815     719.978
  O     -433.540     472.017     719.364
  C     -433.309     470.776     721.496
  O     -433.041     469.452     722.029
  C     -432.460     471.765     722.308
  O     -433.274     472.167     723.424
  C     -431.298     470.906     722.759
  O     -430.593     471.470     723.863
  C     -432.011     469.572     723.047
  N     -431.094     468.428     723.026
  C     -430.129     468.378     724.029
  O     -430.055     469.291     724.856
  N     -429.266     467.315     724.067
  C     -429.291     466.440     723.104
  N     -428.390     465.419     723.187
  C     -430.225     466.491     721.967
  C     -431.094     467.501     721.995
  O     -434.000     470.969     717.023
  O     -434.041     473.487     717.380
  H     -429.938     470.819     724.180
  H     -434.952     473.330     717.094
  H     -430.187     465.765     721.185
  H     -431.838     467.633     721.209
  H     -432.510     469.598     724.014
  H     -430.577     470.789     721.934
  H     -432.122     472.633     721.726
  H     -434.391     470.977     721.679
  H     -427.744     465.426     723.966
  H     -432.010     470.703     719.767
  H     -428.238     464.750     722.440
  H     -433.582     469.961     719.502
  P     -433.899     473.634     723.544
  C     -432.540     474.454     725.558
  O     -432.756     474.578     724.167
  O     -435.214     473.705     724.228
  O     -434.012     474.158     722.019
  H     -434.642     474.902     721.973
  H     -431.619     474.968     725.839
  H     -432.436     473.399     725.849
  H     -433.393     474.904     726.098
  H     -430.076     473.424     717.624
  H     -431.109     473.397     719.033
  H     -431.558     474.348     717.638

 3  4  5  6  7  8  9  10  11  12  13  23  27  28  29  30  32 0
 6-311+G(2d,p)
 ****
 34  35 0
 6-311+G(2d,p)
 ****
 1  2  14  15  16  17  18  19  20  21  22  24  25  26 0
 3-21G
 ****
 31  33  36  37  38  39  40  41  42  43  44  45  46 0
 3-21G
 ****


