%nproc=1
%NoSave
%Mem=1900MB
#P OB98/GEN NMR

erre ene a

0 1
  C      112.576     135.170     404.602
  O      112.603     135.227     406.023
  P      113.558     134.168     406.776
  C      111.617     133.193     408.235
  O      112.607     132.963     407.243
  C      111.046     131.854     408.715
  O      110.127     131.326     407.730
  C      112.087     130.775     408.942
  O      112.700     130.930     410.208
  C      111.252     129.507     408.817
  O      110.544     129.234     410.043
  C      110.278     129.880     407.690
  N      111.219     125.905     404.713
  C      110.961     125.955     406.071
  N      110.905     124.768     406.723
  N      110.773     127.068     406.732
  C      110.876     128.172     405.957
  C      111.139     128.252     404.604
  C      111.288     127.014     403.880
  O      111.427     126.910     402.666
  N      111.187     129.551     404.174
  C      110.918     130.258     405.255
  N      110.697     129.461     406.368
  O      113.932     134.933     408.139
  O      114.769     133.744     406.003
  H      111.177     129.150     410.776
  H      114.809     135.350     408.065
  H      111.336     125.014     404.252
  H      110.844     131.334     405.291
  H      109.271     129.453     407.847
  H      111.859     128.624     408.598
  H      111.057     123.875     406.277
  H      112.844     130.795     408.143
  H      110.721     124.789     407.713
  H      110.475     132.043     409.632
  H      110.812     133.802     407.808
  H      112.072     133.743     409.076
  P      114.051     130.106     410.495
  C      112.927     128.678     412.353
  O      113.622     128.700     411.121
  O      114.706     130.887     411.725
  O      114.985     130.033     409.325
  H      115.679     130.885     411.629
  H      112.268     127.799     412.378
  H      112.320     129.582     412.488
  H      113.651     128.608     413.174
  H      111.909     135.919     404.228
  H      112.238     134.204     404.290
  H      113.560     135.345     404.219

 3  4  5  6  7  8  9  10  11  12  23  26  30  31 0
 6-311+G(2d,p)
 ****
 33  35  36  37  38 0
 6-311+G(2d,p)
 ****
 1  2  13  14  15  16  17  18  19  20  21  22  24  25 0
 3-21G
 ****
 27  28  29  32  34  39  40  41  42  43  44  45  46  47  48  49 0
 3-21G
 ****


