%nproc=1
%NoSave
%Mem=1900MB
#P OB98/GEN NMR

erre ene a

0 1
  C     -342.540     134.120     399.231
  O     -343.759     134.367     398.519
  P     -344.661     133.083     398.182
  C     -344.930     133.058     395.588
  O     -345.504     133.410     396.843
  C     -345.829     133.555     394.456
  O     -345.634     134.958     394.182
  C     -345.559     132.855     393.127
  O     -346.096     131.537     393.123
  C     -346.232     133.827     392.151
  O     -347.657     133.607     392.142
  C     -345.912     135.189     392.784
  N     -343.956     136.871     388.371
  C     -345.117     136.246     388.653
  N     -345.569     135.831     389.857
  C     -344.674     136.124     390.829
  C     -343.460     136.769     390.690
  C     -343.101     137.143     389.380
  N     -341.909     137.787     389.087
  N     -342.832     136.902     391.904
  C     -343.643     136.324     392.767
  N     -344.783     135.855     392.162
  O     -345.770     133.095     399.335
  O     -343.897     131.801     398.148
  H     -348.068     134.364     391.666
  H     -345.601     132.369     399.958
  H     -345.767     136.046     387.808
  H     -343.459     136.227     393.831
  H     -346.764     135.870     392.726
  H     -345.874     133.705     391.119
  H     -344.482     132.816     392.924
  H     -346.880     133.399     394.749
  H     -344.806     131.978     395.514
  H     -341.693     137.949     388.113
  H     -341.227     137.913     389.818
  H     -343.938     133.509     395.526
  P     -345.349     130.424     392.238
  C     -347.627     129.795     391.233
  O     -346.495     129.326     391.953
  O     -344.436     129.704     393.331
  O     -344.629     130.955     391.038
  H     -344.936     129.517     394.162
  H     -348.306     128.948     391.082
  H     -347.324     130.184     390.258
  H     -348.140     130.570     391.802
  H     -342.029     135.046     399.396
  H     -341.917     133.467     398.656
  H     -342.763     133.663     400.172

 3  4  5  6  7  8  9  10  11  12  22  25  29  30  31  32 0
 6-311+G(2d,p)
 ****
 33  36  37 0
 6-311+G(2d,p)
 ****
 1  2  13  14  15  16  17  18  19  20  21  23  24  26 0
 3-21G
 ****
 27  28  34  35  38  39  40  41  42  43  44  45  46  47  48 0
 3-21G
 ****


