%nproc=1
%NoSave
%Mem=1900MB
#P OB98/GEN NMR

erre ene a

0 1
  C     -136.219    -407.431     184.657
  O     -137.102    -406.986     183.615
  P     -136.812    -407.219     182.053
  C     -138.949    -408.608     181.599
  O     -138.220    -407.418     181.308
  C     -140.179    -408.726     180.693
  O     -141.212    -407.806     181.124
  C     -139.947    -408.366     179.233
  O     -139.217    -409.359     178.537
  C     -141.381    -408.180     178.740
  O     -141.976    -409.432     178.372
  C     -142.086    -407.611     179.989
  N     -142.455    -406.212     179.847
  C     -143.672    -405.944     179.213
  O     -144.339    -406.861     178.739
  N     -144.093    -404.641     179.126
  C     -143.315    -403.680     179.531
  N     -143.791    -402.412     179.436
  C     -141.962    -403.915     180.076
  C     -141.601    -405.189     180.209
  O     -135.828    -408.307     181.776
  O     -136.284    -405.809     181.508
  H     -135.716    -405.952     180.728
  H     -141.406    -409.823     177.680
  H     -141.334    -403.086     180.365
  H     -140.632    -405.452     180.616
  H     -142.986    -408.197     180.215
  H     -141.435    -407.527     177.863
  H     -139.419    -407.405     179.178
  H     -140.567    -409.751     180.777
  H     -144.725    -402.289     179.065
  H     -139.280    -408.566     182.641
  H     -143.280    -401.599     179.744
  H     -138.289    -409.474     181.477
  P     -138.224    -408.859     177.378
  C     -136.065    -409.681     178.565
  O     -136.910    -409.775     177.435
  O     -137.724    -407.434     177.905
  O     -138.858    -408.751     176.031
  H     -137.657    -406.814     177.153
  H     -135.546    -410.632     178.694
  H     -136.633    -409.458     179.474
  H     -135.327    -408.890     178.394
  H     -136.626    -407.161     185.609
  H     -135.261    -406.970     184.534
  H     -136.112    -408.494     184.604

 3  4  5  6  7  8  9  10  11  12  13  24  27  28  29  30  32 0
 6-311+G(2d,p)
 ****
 34  35 0
 6-311+G(2d,p)
 ****
 1  2  14  15  16  17  18  19  20  21  22  23  25  26 0
 3-21G
 ****
 31  33  36  37  38  39  40  41  42  43  44  45  46 0
 3-21G
 ****


