%nproc=1
%NoSave
%Mem=1900MB
#P OB98/GEN NMR

erre ene a

0 1
  C      293.728    -314.187      44.549
  O      293.883    -314.799      45.824
  P      295.332    -314.766      46.510
  C      294.938    -312.333      47.318
  O      295.776    -313.225      46.594
  C      295.768    -311.317      48.103
  O      294.870    -310.417      48.810
  C      296.711    -311.929      49.147
  O      297.870    -311.091      49.219
  C      295.924    -311.799      50.436
  O      296.759    -311.861      51.589
  C      295.241    -310.453      50.206
  N      293.444    -310.579      54.990
  C      294.685    -310.772      54.492
  N      295.086    -310.721      53.205
  C      294.051    -310.440      52.394
  C      292.724    -310.254      52.759
  C      292.431    -310.327      54.130
  N      291.171    -310.122      54.643
  N      291.948    -310.012      51.645
  C      292.786    -310.050      50.628
  N      294.069    -310.283      51.038
  O      296.275    -315.365      45.363
  O      295.456    -315.541      47.777
  H      297.141    -312.758      51.641
  H      296.612    -316.243      45.633
  H      295.457    -310.990      55.226
  H      292.518    -309.922      49.590
  H      295.915    -309.608      50.396
  H      295.189    -312.611      50.508
  H      297.001    -312.963      48.934
  H      296.334    -310.705      47.387
  H      294.340    -312.913      48.026
  H      291.066    -310.057      55.644
  H      290.452    -309.749      54.035
  H      294.266    -311.820      46.627
  P      299.299    -311.817      49.135
  C      299.204    -312.065      46.555
  O      299.281    -312.712      47.810
  O      299.238    -312.887      50.324
  O      300.459    -310.890      49.282
  H      300.139    -313.071      50.652
  H      299.763    -312.651      45.820
  H      299.617    -311.050      46.591
  H      298.156    -312.010      46.242
  H      292.714    -314.290      44.225
  H      294.378    -314.662      43.844
  H      293.976    -313.149      44.619

 3  4  5  6  7  8  9  10  11  12  22  25  29  30  31  32 0
 6-311+G(2d,p)
 ****
 33  36  37 0
 6-311+G(2d,p)
 ****
 1  2  13  14  15  16  17  18  19  20  21  23  24  26 0
 3-21G
 ****
 27  28  34  35  38  39  40  41  42  43  44  45  46  47  48 0
 3-21G
 ****


