%nproc=1
%NoSave
%Mem=1900MB
#P OB98/GEN NMR

erre ene a

0 1
  C      -23.048    -152.623    -323.985
  O      -24.399    -153.026    -324.045
  P      -25.581    -152.071    -324.536
  C      -26.658    -152.074    -322.172
  O      -26.844    -152.293    -323.565
  C      -27.971    -152.131    -321.374
  O      -28.915    -151.196    -321.933
  C      -28.608    -153.520    -321.512
  O      -28.185    -154.583    -320.681
  C      -30.111    -153.266    -321.518
  O      -30.708    -153.482    -320.239
  C      -30.220    -151.795    -321.920
  N      -34.578    -151.280    -324.456
  C      -34.349    -151.192    -323.097
  N      -35.446    -151.150    -322.314
  N      -33.153    -151.170    -322.567
  C      -32.158    -151.316    -323.471
  C      -32.262    -151.399    -324.842
  C      -33.586    -151.379    -325.419
  O      -33.835    -151.538    -326.610
  N      -31.045    -151.613    -325.436
  C      -30.205    -151.702    -324.422
  N      -30.841    -151.570    -323.211
  O      -25.816    -151.993    -326.011
  O      -25.038    -150.627    -324.060
  H      -30.440    -152.749    -319.658
  H      -25.334    -149.971    -324.720
  H      -35.527    -151.370    -324.803
  H      -29.143    -151.897    -324.511
  H      -30.810    -151.237    -321.182
  H      -30.615    -153.947    -322.214
  H      -36.375    -151.309    -322.674
  H      -28.379    -153.871    -322.528
  H      -35.319    -151.255    -321.313
  H      -27.817    -151.821    -320.339
  H      -26.179    -151.096    -322.054
  H      -25.965    -152.821    -321.774
  P      -27.788    -156.058    -321.155
  C      -28.630    -157.184    -319.016
  O      -27.510    -156.950    -319.854
  O      -26.325    -155.887    -321.786
  O      -28.715    -156.671    -322.153
  H      -26.143    -156.624    -322.399
  H      -28.281    -157.524    -318.042
  H      -29.259    -157.962    -319.460
  H      -29.223    -156.271    -318.887
  H      -22.449    -153.434    -323.626
  H      -22.954    -151.789    -323.321
  H      -22.717    -152.340    -324.962

 3  4  5  6  7  8  9  10  11  12  23  26  30  31 0
 6-311+G(2d,p)
 ****
 33  35  36  37  38 0
 6-311+G(2d,p)
 ****
 1  2  13  14  15  16  17  18  19  20  21  22  24  25 0
 3-21G
 ****
 27  28  29  32  34  39  40  41  42  43  44  45  46  47  48  49 0
 3-21G
 ****


