%nproc=1
%NoSave
%Mem=1900MB
#P OB98/GEN NMR

erre ene a

0 1
  C       13.520     -16.402      87.471
  O       12.354     -16.665      86.678
  P       11.255     -15.549      86.326
  C        8.901     -14.982      87.242
  O       10.199     -15.489      87.534
  C        8.023     -14.984      88.496
  O        7.650     -16.339      88.845
  C        8.685     -14.445      89.755
  O        8.821     -13.036      89.733
  C        7.741     -14.969      90.836
  O        6.616     -14.098      91.015
  C        7.277     -16.313      90.243
  N        7.817     -17.462      90.950
  C        7.366     -17.663      92.258
  O        6.615     -16.847      92.790
  N        7.793     -18.778      92.935
  C        8.674     -19.563      92.396
  N        9.046     -20.661      93.106
  C        9.276     -19.310      91.073
  C        8.805     -18.256      90.412
  O       10.623     -15.724      84.984
  O       12.027     -14.150      86.421
  H       11.590     -13.495      85.846
  H        6.091     -14.462      91.755
  H       10.039     -19.966      90.679
  H        9.184     -18.006      89.426
  H        6.182     -16.369      90.249
  H        8.238     -15.058      91.808
  H        9.670     -14.914      89.875
  H        7.109     -14.418      88.273
  H        8.605     -20.810      94.005
  H        8.439     -15.626      86.486
  H        9.706     -21.347      92.769
  H        8.994     -13.971      86.831
  P       10.289     -12.452      89.455
  C       12.640     -12.703      90.525
  O       11.264     -13.021      90.591
  O       10.150     -10.897      89.813
  O       10.776     -12.643      88.056
  H       10.664     -10.367      89.178
  H       13.052     -12.720      91.537
  H       12.806     -11.714      90.090
  H       13.154     -13.455      89.922
  H       14.097     -17.298      87.566
  H       13.222     -16.065      88.442
  H       14.111     -15.646      86.997

 3  4  5  6  7  8  9  10  11  12  13  24  27  28  29  30  32 0
 6-311+G(2d,p)
 ****
 34  35 0
 6-311+G(2d,p)
 ****
 1  2  14  15  16  17  18  19  20  21  22  23  25  26 0
 3-21G
 ****
 31  33  36  37  38  39  40  41  42  43  44  45  46 0
 3-21G
 ****


