%nproc=1
%NoSave
%Mem=1900MB
#P OB98/GEN NMR

erre ene a

0 1
  C     -430.455    -330.380     148.199
  O     -430.297    -330.161     146.807
  P     -429.172    -330.996     146.028
  C     -426.660    -330.466     145.477
  O     -427.772    -330.269     146.328
  C     -425.404    -329.813     146.076
  O     -425.003    -330.560     147.263
  C     -424.193    -329.757     145.137
  O     -423.498    -328.536     145.407
  C     -423.371    -330.961     145.579
  O     -422.007    -330.853     145.210
  C     -423.619    -330.931     147.091
  N     -423.352    -332.212     147.754
  C     -422.119    -332.370     148.377
  O     -421.242    -331.515     148.396
  N     -421.914    -333.589     148.978
  C     -422.770    -334.656     148.953
  O     -422.525    -335.734     149.495
  C     -424.031    -334.443     148.230
  C     -424.266    -333.251     147.684
  O     -429.497    -330.604     144.507
  O     -429.196    -332.459     146.326
  H     -429.804    -329.691     144.406
  H     -421.926    -331.032     144.260
  H     -421.047    -333.721     149.475
  H     -424.735    -335.273     148.177
  H     -425.189    -333.065     147.142
  H     -423.013    -330.143     147.556
  H     -423.780    -331.870     145.120
  H     -424.487    -329.791     144.080
  H     -425.681    -328.796     146.412
  H     -426.855    -330.020     144.506
  H     -426.496    -331.541     145.333
  P     -422.845    -327.746     144.165
  C     -421.307    -328.473     142.170
  O     -421.779    -328.725     143.476
  O     -421.914    -326.701     144.953
  O     -423.823    -327.073     143.258
  H     -421.373    -327.116     145.642
  H     -420.373    -329.030     142.019
  H     -421.115    -327.414     142.006
  H     -422.047    -328.825     141.441
  H     -431.239    -329.754     148.572
  H     -429.541    -330.145     148.703
  H     -430.705    -331.406     148.373

 3  4  5  6  7  8  9  10  11  12  13  24  28  29  30  31  32 0
 6-311+G(2d,p)
 ****
 33  34 0
 6-311+G(2d,p)
 ****
 1  2  14  15  16  17  18  19  20  21  22  23  25  26  27 0
 3-21G
 ****
 35  36  37  38  39  40  41  42  43  44  45 0
 3-21G
 ****


