%nproc=1
%NoSave
%Mem=1900MB
#P OB98/GEN NMR

erre ene a

0 1
  C       69.487     217.886    -510.085
  O       68.684     217.295    -509.078
  H       69.001     217.793    -511.060
  H       69.609     218.952    -509.854
  H       70.475     217.416    -510.106
  P       68.412     215.721    -509.218
  C       66.187     215.638    -507.876
  O       67.568     215.293    -507.916
  C       65.981     216.861    -506.981
  O       66.598     216.641    -505.699
  C       66.591     218.152    -507.514
  O       65.776     218.756    -508.505
  C       66.642     218.985    -506.244
  O       65.335     219.530    -505.974
  C       67.011     217.942    -505.184
  N       70.594     218.962    -501.671
  C       69.239     219.049    -501.643
  N       68.355     218.740    -502.607
  C       68.991     218.276    -503.695
  C       70.355     218.111    -503.874
  C       71.177     218.487    -502.798
  N       72.561     218.448    -502.866
  N       70.626     217.621    -505.134
  C       69.448     217.521    -505.718
  N       68.430     217.895    -504.888
  O       69.863     215.082    -508.960
  O       67.844     215.289    -510.526
  H       64.707     218.781    -505.995
  H       70.289     214.899    -509.815
  H       68.817     219.428    -500.706
  H       69.288     217.181    -506.733
  H       66.475     218.101    -504.237
  H       67.338     219.832    -506.312
  H       67.618     217.999    -507.878
  H       64.901     216.978    -506.817
  H       65.614     214.795    -507.475
  H       73.017     219.138    -502.273
  H       72.932     218.343    -503.802
  H       65.848     215.853    -508.897
  P       66.488     219.346    -509.814
  C       66.344     221.758    -508.889
  O       66.012     220.871    -509.951
  O       65.740     218.597    -511.001
  O       67.977     219.121    -509.883
  H       66.383     218.128    -511.570
  H       65.968     222.735    -509.110
  H       67.408     221.801    -508.780
  H       65.906     221.405    -507.979

 6  7  8  9  10  11  12  13  14  15  25  28  32  33  34  35 0
 6-311+G(2d,p)
 ****
 36  39  40 0
 6-311+G(2d,p)
 ****
 1  2  3  4  5  16  17  18  19  20  21  22  23  24 0
 3-21G
 ****
 26  27  29  30  31  37  38  41  42  43  44  45  46  47  48 0
 3-21G
 ****


