%nproc=1
%NoSave
%Mem=1900MB
#P OB98/GEN NMR

erre ene a

0 1
  C      110.155     701.097     781.258
  O      111.349     701.109     782.032
  P      112.254     702.429     782.102
  C      113.860     703.551     783.770
  O      112.880     702.537     783.579
  C      114.430     703.480     785.177
  O      113.400     703.722     786.169
  C      115.009     702.115     785.544
  O      116.238     701.861     784.891
  C      115.090     702.241     787.066
  O      116.265     702.961     787.454
  C      113.827     703.053     787.383
  N      112.750     702.228     787.924
  C      112.930     701.792     789.246
  O      113.949     702.062     789.854
  N      111.891     701.088     789.835
  C      110.871     700.730     789.125
  N      109.857     700.077     789.779
  C      110.732     701.022     787.675
  C      111.685     701.777     787.155
  O      111.582     703.675     781.605
  O      113.536     702.079     781.206
  H      113.681     702.794     780.567
  H      116.323     702.883     788.434
  H      109.882     700.633     787.135
  H      111.678     702.068     786.116
  H      114.050     703.844     788.097
  H      115.138     701.244     787.550
  H      114.285     701.329     785.278
  H      115.196     704.263     785.275
  H      109.978     699.914     790.771
  H      113.383     704.525     783.613
  H      108.910     700.043     789.409
  H      114.649     703.431     783.021
  P      116.629     700.322     784.658
  C      118.134     699.013     782.993
  O      117.537     700.251     783.337
  O      115.246     699.646     784.204
  O      117.206     699.630     785.847
  H      115.186     698.750     784.561
  H      118.406     699.040     781.938
  H      117.452     698.176     783.164
  H      119.036     698.872     783.593
  H      109.690     700.136     781.334
  H      110.392     701.299     780.234
  H      109.485     701.847     781.624

 3  4  5  6  7  8  9  10  11  12  13  24  27  28  29  30  32 0
 6-311+G(2d,p)
 ****
 34  35 0
 6-311+G(2d,p)
 ****
 1  2  14  15  16  17  18  19  20  21  22  23  25  26 0
 3-21G
 ****
 31  33  36  37  38  39  40  41  42  43  44  45  46 0
 3-21G
 ****


