%nproc=1
%NoSave
%Mem=1900MB
#P OB98/GEN NMR

erre ene a

0 1
  C      151.599      93.545     331.586
  O      152.286      93.125     330.421
  H      150.533      93.334     331.459
  H      151.730      94.621     331.737
  H      151.966      92.994     332.455
  P      153.868      93.382     330.390
  C      154.550      95.386     328.897
  O      154.014      94.961     330.144
  C      153.496      95.275     327.796
  O      152.256      95.859     328.232
  C      153.868      95.984     326.497
  O      154.700      95.154     325.701
  C      152.494      96.166     325.864
  O      152.094      94.937     325.222
  C      151.593      96.439     327.080
  N      148.077     100.182     326.911
  C      148.077      98.928     326.399
  N      149.069      98.009     326.435
  C      150.142      98.488     327.092
  C      150.281      99.743     327.660
  C      149.181     100.612     327.558
  N      149.182     101.891     328.078
  N      151.526      99.880     328.245
  C      152.099      98.706     328.082
  N      151.317      97.838     327.357
  O      154.649      92.498     329.477
  O      154.232      93.241     331.946
  H      151.233      95.110     324.798
  H      153.550      93.668     332.494
  H      147.165      98.628     325.891
  H      153.067      98.423     328.483
  H      150.618      95.947     326.979
  H      152.485      96.946     325.096
  H      154.309      96.968     326.683
  H      153.306      94.207     327.618
  H      155.424      94.777     328.635
  H      148.436     102.507     327.793
  H      150.053     102.250     328.445
  H      154.875      96.425     329.012
  P      155.331      95.691     324.326
  C      154.310      94.941     322.089
  O      154.113      95.690     323.282
  O      156.561      94.976     323.891
  O      155.577      97.252     324.587
  H      156.192      97.610     323.916
  H      153.437      95.014     321.474
  H      154.487      93.915     322.337
  H      155.154      95.331     321.558

 6  7  8  9  10  11  12  13  14  15  25  28  32  33  34  35 0
 6-311+G(2d,p)
 ****
 36  39  40 0
 6-311+G(2d,p)
 ****
 1  2  3  4  5  16  17  18  19  20  21  22  23  24 0
 3-21G
 ****
 26  27  29  30  31  37  38  41  42  43  44  45  46  47 0
 3-21G
 ****
 48 0
 3-21G
 ****


