%nproc=1
%NoSave
%Mem=1900MB
#P OB98/GEN NMR

erre ene a

0 1
  C      186.457     379.540     387.877
  O      187.111     379.994     386.700
  P      187.328     378.936     385.508
  C      188.893     380.788     384.474
  O      188.650     379.420     384.738
  C      190.397     381.059     384.384
  O      190.967     381.100     385.715
  C      191.187     379.982     383.642
  O      191.040     380.108     382.231
  C      192.605     380.246     384.147
  O      193.195     381.359     383.452
  C      192.328     380.628     385.626
  N      192.590     379.537     386.570
  C      193.807     379.569     387.229
  O      194.644     380.460     387.060
  N      194.038     378.535     388.086
  C      193.227     377.456     388.297
  O      193.514     376.524     389.047
  C      191.965     377.462     387.542
  C      191.709     378.487     386.733
  O      186.123     379.340     384.537
  O      187.320     377.516     385.973
  H      185.872     380.275     384.638
  H      193.220     381.115     382.504
  H      194.914     378.545     388.600
  H      191.296     376.619     387.676
  H      190.788     378.507     386.149
  H      192.965     381.489     385.908
  H      193.267     379.388     384.025
  H      190.858     378.988     383.958
  H      190.541     382.038     383.917
  H      188.460     381.384     385.286
  H      188.399     381.067     383.542
  P      191.180     378.749     381.376
  C      191.129     379.959     379.053
  O      191.854     379.167     379.985
  O      189.648     378.433     381.011
  O      191.887     377.650     382.120
  H      189.171     379.233     380.753
  H      191.834     380.433     378.364
  H      190.558     380.747     379.570
  H      190.442     379.326     378.488
  H      186.383     380.346     388.577
  H      187.019     378.740     388.311
  H      185.476     379.193     387.628

 3  4  5  6  7  8  9  10  11  12  13  24  28  29  30  31  32 0
 6-311+G(2d,p)
 ****
 33  34 0
 6-311+G(2d,p)
 ****
 1  2  14  15  16  17  18  19  20  21  22  23  25  26  27 0
 3-21G
 ****
 35  36  37  38  39  40  41  42  43  44  45 0
 3-21G
 ****


