%nproc=1
%NoSave
%Mem=1900MB
#P OB98/GEN NMR

erre ene a

0 1
  C      172.720     -64.503    -182.516
  O      172.187     -64.625    -183.814
  P      173.066     -64.928    -185.108
  C      173.338     -62.632    -186.331
  O      172.662     -63.883    -186.254
  C      172.957     -61.880    -187.618
  O      173.715     -62.446    -188.720
  C      171.466     -62.063    -187.959
  O      170.831     -60.878    -188.420
  C      171.477     -63.259    -188.900
  O      170.312     -63.358    -189.705
  C      172.793     -63.051    -189.647
  N      172.856     -66.439    -193.441
  C      172.253     -65.197    -193.393
  N      171.415     -64.907    -194.413
  N      172.434     -64.347    -192.417
  C      173.203     -64.822    -191.415
  C      173.852     -66.037    -191.349
  C      173.676     -66.954    -192.448
  O      174.097     -68.110    -192.475
  N      174.495     -66.209    -190.148
  C      174.201     -65.117    -189.468
  N      173.394     -64.261    -190.187
  O      173.231     -66.364    -185.490
  O      174.519     -64.381    -184.650
  H      170.190     -62.494    -190.149
  H      175.189     -64.956    -185.070
  H      172.616     -67.087    -194.181
  H      174.519     -64.905    -188.456
  H      172.669     -62.378    -190.496
  H      171.517     -64.164    -188.280
  H      171.148     -65.597    -195.101
  H      170.901     -62.321    -187.061
  H      170.782     -64.121    -194.279
  H      173.245     -60.828    -187.521
  H      174.407     -62.859    -186.329
  H      173.121     -62.020    -185.450
  P      169.273     -60.527    -188.451
  C      168.833     -60.201    -190.958
  O      168.991     -59.568    -189.705
  O      169.048     -59.550    -187.201
  O      168.367     -61.703    -188.354
  H      168.195     -59.763    -186.773
  H      168.923     -59.446    -191.747
  H      167.842     -60.655    -191.020
  H      169.600     -60.970    -191.109
  H      171.930     -64.300    -181.824
  H      173.428     -63.701    -182.495
  H      173.207     -65.416    -182.243

 3  4  5  6  7  8  9  10  11  12  23  26  30  31 0
 6-311+G(2d,p)
 ****
 33  35  36  37  38 0
 6-311+G(2d,p)
 ****
 1  2  13  14  15  16  17  18  19  20  21  22  24  25 0
 3-21G
 ****
 27  28  29  32  34  39  40  41  42  43  44  45  46  47  48  49 0
 3-21G
 ****


