%nproc=1
%NoSave
%Mem=1900MB
#P OB98/GEN NMR

erre ene a

0 1
  C     -930.306    -527.170    1651.467
  O     -929.506    -526.523    1650.471
  P     -928.514    -527.254    1649.464
  C     -926.565    -525.459    1649.578
  O     -927.562    -526.144    1648.819
  C     -926.462    -523.986    1649.152
  O     -926.068    -523.913    1647.758
  C     -927.807    -523.234    1649.272
  O     -927.688    -521.931    1649.812
  C     -928.394    -523.351    1647.862
  O     -929.401    -522.404    1647.580
  C     -927.123    -523.288    1647.009
  N     -928.878    -522.900    1642.212
  C     -929.079    -522.054    1643.294
  N     -929.853    -520.965    1643.069
  N     -928.564    -522.254    1644.490
  C     -927.897    -523.423    1644.590
  C     -927.648    -524.349    1643.598
  C     -928.165    -524.080    1642.279
  O     -928.030    -524.805    1641.277
  N     -926.903    -525.419    1644.086
  C     -926.719    -525.122    1645.341
  N     -927.295    -523.921    1645.700
  O     -929.122    -528.246    1648.545
  O     -927.486    -528.056    1650.446
  H     -929.638    -522.514    1646.636
  H     -927.224    -528.859    1649.968
  H     -929.284    -522.696    1641.321
  H     -926.161    -525.739    1646.043
  H     -926.828    -522.258    1646.775
  H     -928.855    -524.362    1647.786
  H     -930.370    -520.809    1642.230
  H     -928.474    -523.733    1649.986
  H     -930.171    -520.471    1643.914
  H     -925.683    -523.499    1649.773
  H     -925.629    -525.969    1649.389
  H     -926.800    -525.555    1650.655
  P     -928.048    -521.408    1651.286
  C     -930.271    -520.274    1650.712
  O     -928.915    -520.081    1651.186
  O     -926.635    -520.862    1651.880
  O     -928.610    -522.474    1652.204
  H     -926.393    -521.381    1652.668
  H     -930.676    -519.277    1650.444
  H     -930.880    -520.671    1651.540
  H     -930.295    -520.926    1649.848
  H     -930.876    -526.437    1651.999
  H     -929.670    -527.692    1652.151
  H     -930.970    -527.864    1650.996

 3  4  5  6  7  8  9  10  11  12  23  26  30  31 0
 6-311+G(2d,p)
 ****
 33  35  36  37  38 0
 6-311+G(2d,p)
 ****
 1  2  13  14  15  16  17  18  19  20  21  22  24  25 0
 3-21G
 ****
 27  28  29  32  34  39  40  41  42  43  44  45  46  47  48  49 0
 3-21G
 ****


