%nproc=1
%NoSave
%Mem=1900MB
#P OB98/GEN NMR

erre ene a

0 1
  C      267.824    -258.031     387.230
  O      267.581    -259.416     387.397
  H      268.831    -257.807     387.597
  H      267.104    -257.447     387.814
  H      267.765    -257.748     386.180
  P      266.231    -260.040     386.798
  C      263.732    -259.399     386.841
  O      265.013    -259.213     387.428
  C      262.853    -260.241     387.772
  O      262.589    -259.525     388.995
  C      261.494    -260.595     387.176
  O      261.602    -261.628     386.221
  C      260.727    -260.966     388.437
  O      261.026    -262.314     388.844
  C      261.282    -259.948     389.464
  N      260.393    -258.800     389.658
  C      259.848    -258.653     390.929
  O      260.049    -259.449     391.853
  N      259.027    -257.566     391.109
  C      258.620    -256.709     390.133
  O      257.813    -255.804     390.321
  C      259.208    -256.922     388.803
  C      260.050    -257.944     388.629
  O      266.104    -261.523     386.898
  O      266.243    -259.555     385.269
  H      260.401    -262.528     389.563
  H      266.479    -260.306     384.695
  H      258.614    -257.458     392.014
  H      258.920    -256.257     388.002
  H      260.497    -258.121     387.650
  H      261.439    -260.430     390.437
  H      259.648    -260.907     388.300
  H      261.034    -259.703     386.744
  H      263.412    -261.156     388.027
  H      263.857    -259.921     385.886
  H      263.270    -258.418     386.660
  P      260.297    -262.138     385.452
  C      258.095    -263.292     386.109
  O      259.447    -263.043     386.467
  O      260.537    -262.749     384.106
  O      259.396    -260.814     385.317
  H      259.239    -260.620     384.365
  H      257.634    -263.902     386.858
  H      258.063    -263.798     385.167
  H      257.569    -262.363     386.033

 6  7  8  9  10  11  12  13  14  15  16  26  31  32  33  34  35 0
 6-311+G(2d,p)
 ****
 36  37 0
 6-311+G(2d,p)
 ****
 1  2  3  4  5  17  18  19  20  21  22  23  24  25 0
 3-21G
 ****
 27  28  29  30  38  39  40  41  42  43  44  45 0
 3-21G
 ****


