%nproc=1
%NoSave
%Mem=1900MB
#P OB98/GEN NMR

erre ene a

0 1
  C     -424.591     286.006     302.139
  O     -425.290     285.542     303.279
  H     -423.609     286.369     302.453
  H     -425.138     286.833     301.679
  H     -424.455     285.197     301.415
  P     -426.690     284.803     303.011
  C     -426.185     282.239     302.743
  O     -426.514     283.320     303.597
  C     -426.225     280.913     303.503
  O     -426.090     279.825     302.554
  C     -425.111     280.767     304.544
  O     -425.629     280.047     305.663
  C     -424.074     279.916     303.830
  O     -423.222     279.233     304.745
  C     -424.972     279.009     302.969
  N     -424.262     278.446     301.825
  C     -423.440     277.340     302.083
  O     -423.333     276.900     303.225
  N     -422.731     276.789     301.047
  C     -422.781     277.332     299.868
  N     -422.034     276.751     298.892
  C     -423.599     278.521     299.565
  C     -424.313     279.017     300.574
  O     -426.654     284.595     301.425
  O     -427.885     285.546     303.508
  H     -423.763     278.591     305.255
  H     -425.796     284.275     301.097
  H     -423.598     278.947     298.570
  H     -424.946     279.883     300.439
  H     -425.371     278.184     303.572
  H     -423.444     280.544     303.190
  H     -424.714     281.731     304.874
  H     -427.213     280.811     303.968
  H     -421.468     275.950     299.151
  H     -425.186     282.383     302.315
  H     -421.952     277.123     297.955
  H     -426.909     282.226     301.919
  P     -425.513     280.675     307.130
  C     -427.842     281.694     307.598
  O     -426.944     280.620     307.848
  O     -424.805     281.983     307.225
  O     -424.691     279.546     307.932
  H     -424.042     280.002     308.509
  H     -428.752     281.530     308.136
  H     -428.052     281.747     306.550
  H     -427.398     282.613     307.920

 6  7  8  9  10  11  12  13  14  15  16  26  30  31  32  33  35 0
 6-311+G(2d,p)
 ****
 37  38 0
 6-311+G(2d,p)
 ****
 1  2  3  4  5  17  18  19  20  21  22  23  24  25 0
 3-21G
 ****
 27  28  29  34  36  39  40  41  42  43  44  45  46 0
 3-21G
 ****


