%nproc=1
%NoSave
%Mem=1900MB
#P OB98/GEN NMR

erre ene a

0 1
  C     -678.905     378.265     261.380
  O     -679.015     377.059     260.655
  H     -679.400     378.141     262.344
  H     -679.403     379.071     260.833
  H     -677.859     378.526     261.556
  P     -678.133     376.865     259.332
  C     -676.682     375.127     260.561
  O     -676.698     376.330     259.817
  C     -675.244     374.654     260.811
  O     -674.595     375.596     261.714
  C     -675.145     373.262     261.451
  O     -673.930     372.662     260.985
  C     -675.034     373.607     262.926
  O     -674.538     372.522     263.677
  C     -674.142     374.848     262.861
  N     -674.194     375.641     264.085
  C     -673.205     375.389     265.030
  O     -672.336     374.528     264.885
  N     -673.266     376.127     266.181
  C     -674.241     377.030     266.493
  O     -674.265     377.645     267.553
  C     -675.288     377.224     265.478
  C     -675.214     376.534     264.335
  O     -678.085     378.036     258.409
  O     -678.760     375.574     258.624
  H     -675.177     371.778     263.663
  H     -678.652     375.637     257.653
  H     -672.554     375.965     266.871
  H     -676.079     377.931     265.698
  H     -675.968     376.659     263.566
  H     -673.095     374.566     262.685
  H     -676.016     373.863     263.336
  H     -676.000     372.620     261.224
  H     -674.696     374.691     259.863
  H     -677.225     374.365     259.987
  H     -677.192     375.277     261.518
  P     -673.927     371.383     260.016
  C     -672.502     372.385     258.117
  O     -673.782     371.885     258.500
  O     -675.062     370.442     260.242
  O     -672.526     370.662     260.301
  H     -672.604     369.706     260.123
  H     -672.530     372.687     257.091
  H     -671.767     371.618     258.243
  H     -672.249     373.225     258.729

 6  7  8  9  10  11  12  13  14  15  16  26  31  32  33  34  35 0
 6-311+G(2d,p)
 ****
 36  37 0
 6-311+G(2d,p)
 ****
 1  2  3  4  5  17  18  19  20  21  22  23  24  25 0
 3-21G
 ****
 27  28  29  30  38  39  40  41  42  43  44  45 0
 3-21G
 ****


