%nproc=1
%NoSave
%Mem=1900MB
#P OB98/GEN NMR

erre ene a

0 1
  C     -124.884     -25.041     147.228
  O     -125.059     -23.926     148.085
  P     -126.255     -22.912     147.735
  C     -124.545     -20.971     147.439
  O     -125.617     -21.720     146.877
  C     -123.531     -20.609     146.354
  O     -123.022     -21.808     145.735
  C     -124.096     -19.771     145.215
  O     -124.267     -18.420     145.608
  C     -123.026     -19.993     144.150
  O     -121.885     -19.162     144.416
  C     -122.663     -21.473     144.365
  N     -122.803     -23.348     139.602
  C     -121.993     -22.439     140.191
  N     -122.033     -21.975     141.458
  C     -123.032     -22.551     142.143
  C     -123.951     -23.476     141.672
  C     -123.811     -23.881     140.335
  N     -124.643     -24.805     139.738
  N     -124.849     -23.824     142.660
  C     -124.470     -23.131     143.714
  N     -123.368     -22.359     143.457
  O     -126.573     -22.227     149.145
  O     -127.469     -23.552     147.137
  H     -122.120     -18.250     144.150
  H     -127.525     -22.026     149.226
  H     -121.208     -22.032     139.561
  H     -124.954     -23.159     144.681
  H     -121.591     -21.664     144.248
  H     -123.372     -19.762     143.136
  H     -125.053     -20.181     144.873
  H     -122.694     -20.088     146.835
  H     -124.044     -21.568     148.206
  H     -124.564     -24.925     138.738
  H     -125.471     -25.090     140.240
  H     -124.952     -20.071     147.910
  P     -125.756     -17.819     145.551
  C     -124.639     -16.499     143.649
  O     -125.828     -17.120     144.105
  O     -125.640     -16.569     146.540
  O     -126.837     -18.795     145.857
  H     -124.858     -16.021     146.346
  H     -124.812     -16.113     142.642
  H     -123.820     -17.224     143.619
  H     -124.377     -15.665     144.307
  H     -124.060     -25.630     147.573
  H     -124.687     -24.699     146.233
  H     -125.773     -25.636     147.231

 3  4  5  6  7  8  9  10  11  12  22  25  29  30  31  32 0
 6-311+G(2d,p)
 ****
 33  36  37 0
 6-311+G(2d,p)
 ****
 1  2  13  14  15  16  17  18  19  20  21  23  24  26 0
 3-21G
 ****
 27  28  34  35  38  39  40  41  42  43  44  45  46  47  48 0
 3-21G
 ****


