%nproc=1
%NoSave
%Mem=1900MB
#P OB98/GEN NMR

erre ene a

0 1
  C     -100.865    -222.192    -521.828
  O      -99.730    -221.583    -521.242
  H     -101.449    -222.709    -521.061
  H     -101.486    -221.414    -522.278
  H     -100.561    -222.894    -522.604
  P      -98.700    -222.570    -520.505
  C      -96.912    -222.737    -522.372
  O      -97.950    -223.400    -521.664
  C      -96.490    -223.568    -523.580
  O      -95.732    -224.712    -523.108
  C      -97.669    -224.100    -524.418
  O      -97.472    -223.806    -525.807
  C      -97.611    -225.603    -524.231
  O      -98.006    -226.326    -525.390
  C      -96.148    -225.840    -523.880
  N      -94.871    -230.759    -524.300
  C      -94.619    -229.698    -525.100
  N      -94.902    -228.400    -524.887
  C      -95.480    -228.232    -523.682
  C      -95.782    -229.210    -522.750
  C      -95.471    -230.533    -523.110
  N      -95.779    -231.619    -522.319
  N      -96.380    -228.659    -521.633
  C      -96.483    -227.369    -521.905
  N      -95.962    -227.074    -523.140
  O      -99.657    -223.657    -519.821
  O      -97.817    -221.909    -519.505
  H      -98.786    -225.879    -525.762
  H      -99.527    -223.626    -518.856
  H      -94.132    -229.929    -526.047
  H      -96.958    -226.630    -521.275
  H      -95.515    -225.884    -524.779
  H      -98.269    -225.886    -523.404
  H      -98.636    -223.694    -524.095
  H      -95.820    -222.966    -524.200
  H      -96.048    -222.603    -521.712
  H      -95.627    -232.539    -522.703
  H      -96.319    -231.467    -521.481
  H      -97.272    -221.751    -522.689
  P      -97.997    -222.368    -526.310
  C      -95.593    -221.441    -526.677
  O      -96.841    -221.284    -526.007
  O      -99.143    -222.008    -525.255
  O      -98.518    -222.370    -527.705
  H      -99.981    -221.840    -525.718
  H      -94.928    -220.656    -526.381
  H      -95.748    -221.398    -527.735
  H      -95.166    -222.387    -526.418

 6  7  8  9  10  11  12  13  14  15  25  28  32  33  34  35 0
 6-311+G(2d,p)
 ****
 36  39  40 0
 6-311+G(2d,p)
 ****
 1  2  3  4  5  16  17  18  19  20  21  22  23  24 0
 3-21G
 ****
 26  27  29  30  31  37  38  41  42  43  44  45  46  47  48 0
 3-21G
 ****


