%nproc=1
%NoSave
%Mem=1900MB
#P OB98/GEN NMR

erre ene a

0 1
  C      -94.364      80.329      59.592
  O      -93.781      81.307      60.430
  P      -92.563      80.926      61.402
  C      -92.236      79.277      63.359
  O      -93.146      79.808      62.398
  C      -92.904      79.150      64.729
  O      -93.367      80.437      65.187
  C      -94.126      78.241      64.743
  O      -93.733      76.879      64.736
  C      -94.817      78.696      66.020
  O      -94.240      78.068      67.177
  C      -94.525      80.213      66.023
  N      -95.670      81.001      65.583
  C      -96.594      81.343      66.578
  O      -96.435      80.955      67.736
  N      -97.703      82.074      66.223
  C      -97.881      82.412      64.983
  N      -99.004      83.126      64.693
  C      -96.946      82.044      63.900
  C      -95.874      81.344      64.268
  O      -91.889      82.083      62.061
  O      -91.590      80.081      60.450
  H      -94.193      77.113      66.971
  H      -91.110      80.667      59.814
  H      -97.143      82.339      62.880
  H      -95.139      81.030      63.538
  H      -94.245      80.549      67.030
  H      -95.884      78.452      66.019
  H      -94.764      78.464      63.880
  H      -92.152      78.785      65.441
  H      -99.633      83.332      65.460
  H      -91.382      79.955      63.435
  H      -99.257      83.407      63.760
  H      -91.873      78.304      63.013
  P      -94.555      75.817      63.866
  C      -96.919      74.822      63.946
  O      -95.876      75.430      64.685
  O      -93.763      74.661      63.350
  O      -95.129      76.694      62.653
  H      -95.010      76.200      61.819
  H      -97.594      74.318      64.642
  H      -96.524      74.090      63.237
  H      -97.478      75.591      63.406
  H      -95.155      80.772      59.024
  H      -94.757      79.534      60.191
  H      -93.621      79.940      58.927

 3  4  5  6  7  8  9  10  11  12  13  23  27  28  29  30  32 0
 6-311+G(2d,p)
 ****
 34  35 0
 6-311+G(2d,p)
 ****
 1  2  14  15  16  17  18  19  20  21  22  24  25  26 0
 3-21G
 ****
 31  33  36  37  38  39  40  41  42  43  44  45  46 0
 3-21G
 ****


