%nproc=1
%NoSave
%Mem=1900MB
#P OB98/GEN NMR

erre ene a

0 1
  C      180.117     464.156     923.594
  O      179.529     463.079     922.847
  P      178.421     463.446     921.740
  C      179.965     462.839     919.752
  O      178.720     462.578     920.413
  C      180.298     461.696     918.782
  O      180.702     460.512     919.540
  C      179.116     461.225     917.896
  O      178.912     461.878     916.643
  C      179.550     459.792     917.586
  O      180.468     459.792     916.473
  C      180.274     459.336     918.845
  N      179.538     454.654     920.780
  C      180.468     455.144     919.942
  N      180.595     456.402     919.479
  C      179.636     457.200     919.975
  C      178.620     456.845     920.842
  C      178.584     455.493     921.255
  N      177.627     454.987     922.102
  N      177.809     457.925     921.134
  C      178.319     458.914     920.430
  N      179.443     458.529     919.718
  O      178.172     464.903     921.520
  O      177.104     462.715     922.322
  H      180.734     458.862     916.336
  H      176.333     463.286     922.131
  H      181.208     454.432     919.589
  H      177.924     459.926     920.403
  H      181.164     458.739     918.626
  H      178.690     459.177     917.291
  H      178.188     461.219     918.471
  H      181.141     462.007     918.132
  H      180.759     462.935     920.491
  H      177.643     454.005     922.319
  H      176.874     455.590     922.421
  H      179.879     463.795     919.259
  P      177.632     461.535     915.731
  C      176.364     463.815     916.017
  O      177.115     462.965     915.189
  O      176.587     460.697     916.393
  O      178.300     460.883     914.442
  H      178.823     461.490     913.901
  H      176.289     464.798     915.558
  H      176.842     463.927     917.000
  H      175.348     463.406     916.154
  H      180.830     463.762     924.287
  H      179.352     464.679     924.129
  H      180.607     464.830     922.923

 3  4  5  6  7  8  9  10  11  12  22  25  29  30  31  32 0
 6-311+G(2d,p)
 ****
 33  36  37 0
 6-311+G(2d,p)
 ****
 1  2  13  14  15  16  17  18  19  20  21  23  24  26 0
 3-21G
 ****
 27  28  34  35  38  39  40  41  42  43  44  45  46  47  48 0
 3-21G
 ****


