%nproc=1
%NoSave
%Mem=1900MB
#P OB98/GEN NMR

erre ene a

0 1
  C     -432.933    -857.536      80.107
  O     -433.759    -856.445      79.741
  H     -431.951    -857.144      80.395
  H     -432.801    -858.221      79.252
  H     -433.366    -858.069      80.955
  P     -435.241    -856.815      79.242
  C     -436.404    -855.825      77.166
  O     -435.695    -855.544      78.357
  C     -435.978    -854.876      76.045
  O     -436.430    -853.542      76.355
  C     -434.450    -854.810      75.864
  O     -434.148    -854.696      74.464
  C     -434.063    -853.516      76.556
  O     -432.857    -852.957      76.048
  C     -435.306    -852.648      76.324
  N     -435.724    -847.622      77.080
  C     -435.732    -848.369      75.960
  N     -435.638    -849.694      75.843
  C     -435.553    -850.288      77.063
  C     -435.530    -849.654      78.303
  C     -435.608    -848.251      78.271
  N     -435.571    -847.481      79.409
  N     -435.386    -850.587      79.316
  C     -435.355    -851.751      78.708
  N     -435.436    -851.618      77.351
  O     -436.204    -857.227      80.306
  O     -434.950    -857.919      78.114
  H     -432.166    -853.650      76.067
  H     -434.201    -857.655      77.544
  H     -435.836    -847.806      75.015
  H     -435.264    -852.723      79.195
  H     -435.281    -852.146      75.344
  H     -433.931    -853.714      77.623
  H     -433.948    -855.677      76.279
  H     -436.474    -855.177      75.115
  H     -437.488    -855.713      77.334
  H     -435.645    -846.473      79.326
  H     -435.487    -847.927      80.324
  H     -436.210    -856.862      76.887
  P     -433.348    -855.895      73.776
  C     -431.793    -855.689      71.705
  O     -433.135    -855.545      72.212
  O     -433.838    -857.270      74.040
  O     -431.850    -855.699      74.363
  H     -431.459    -856.584      74.515
  H     -431.775    -855.432      70.667
  H     -431.472    -856.703      71.827
  H     -431.136    -855.040      72.245

 6  7  8  9  10  11  12  13  14  15  25  28  32  33  34  35 0
 6-311+G(2d,p)
 ****
 36  39  40 0
 6-311+G(2d,p)
 ****
 1  2  3  4  5  16  17  18  19  20  21  22  23  24 0
 3-21G
 ****
 26  27  29  30  31  37  38  41  42  43  44  45  46  47 0
 3-21G
 ****
 48 0
 3-21G
 ****


