%nproc=1
%NoSave
%Mem=1900MB
#P OB98/GEN NMR

erre ene a

0 1
  C      119.852     232.868    -193.878
  O      118.612     233.201    -193.283
  P      118.143     232.386    -191.981
  C      115.781     231.844    -193.012
  O      116.534     232.435    -191.963
  C      114.449     232.585    -193.188
  O      113.635     232.382    -191.991
  C      114.583     234.093    -193.412
  O      113.537     234.488    -194.311
  C      114.326     234.670    -192.024
  O      113.917     236.028    -192.059
  C      113.263     233.694    -191.513
  N      113.143     233.684    -190.048
  C      113.023     234.909    -189.393
  O      113.041     236.006    -189.971
  N      112.914     234.848    -188.022
  C      112.984     233.716    -187.261
  O      112.899     233.718    -186.042
  C      113.153     232.455    -188.009
  C      113.213     232.493    -189.336
  O      118.572     233.394    -190.814
  O      118.727     231.015    -191.883
  H      118.468     234.332    -191.056
  H      113.876     236.358    -191.140
  H      112.792     235.721    -187.533
  H      113.229     231.532    -187.430
  H      113.348     231.583    -189.909
  H      112.288     233.932    -191.953
  H      115.249     234.601    -191.426
  H      115.559     234.376    -193.825
  H      113.912     232.116    -194.024
  H      115.578     230.796    -192.760
  H      116.372     231.862    -193.935
  P      113.793     235.775    -195.258
  C      111.286     236.556    -195.270
  O      112.411     236.098    -196.004
  O      114.668     235.103    -196.419
  O      114.488     236.915    -194.591
  H      114.294     234.276    -196.757
  H      110.587     237.026    -195.971
  H      111.568     237.282    -194.512
  H      110.788     235.700    -194.794
  H      120.020     233.496    -194.728
  H      119.835     231.844    -194.188
  H      120.639     233.012    -193.167

 3  4  5  6  7  8  9  10  11  12  13  24  28  29  30  31  32 0
 6-311+G(2d,p)
 ****
 33  34 0
 6-311+G(2d,p)
 ****
 1  2  14  15  16  17  18  19  20  21  22  23  25  26  27 0
 3-21G
 ****
 35  36  37  38  39  40  41  42  43  44  45 0
 3-21G
 ****


