%nproc=1
%NoSave
%Mem=1900MB
#P OB98/GEN NMR

erre ene a

0 1
  C     -139.167    -231.748    -296.901
  O     -139.875    -232.963    -296.764
  H     -139.461    -231.273    -297.841
  H     -138.091    -231.939    -296.926
  H     -139.406    -231.072    -296.073
  P     -139.616    -233.801    -295.420
  C     -141.050    -231.968    -294.263
  O     -139.895    -232.794    -294.202
  C     -141.433    -231.511    -292.858
  O     -142.701    -230.817    -292.907
  C     -141.626    -232.646    -291.860
  O     -140.390    -233.133    -291.367
  C     -142.478    -231.966    -290.798
  O     -141.676    -231.218    -289.876
  C     -143.348    -231.013    -291.631
  N     -148.000    -231.315    -289.568
  C     -146.875    -230.676    -289.173
  N     -145.675    -230.632    -289.793
  C     -145.713    -231.329    -290.940
  C     -146.781    -232.034    -291.467
  C     -147.976    -232.009    -290.731
  N     -149.108    -232.686    -291.114
  N     -146.414    -232.660    -292.642
  C     -145.152    -232.334    -292.825
  N     -144.689    -231.527    -291.826
  O     -138.023    -233.975    -295.411
  O     -140.324    -235.112    -295.341
  H     -141.084    -231.859    -289.439
  H     -137.787    -234.834    -295.811
  H     -146.948    -230.136    -288.231
  H     -144.533    -232.661    -293.655
  H     -143.444    -230.027    -291.161
  H     -143.045    -232.695    -290.217
  H     -142.207    -233.457    -292.317
  H     -140.673    -230.804    -292.502
  H     -141.882    -232.537    -294.695
  H     -140.839    -231.105    -294.906
  H     -149.923    -232.644    -290.524
  H     -149.068    -233.294    -291.923
  P     -140.396    -234.442    -290.444
  C     -139.287    -235.996    -292.208
  O     -140.428    -235.720    -291.413
  O     -141.857    -234.425    -289.792
  O     -139.322    -234.481    -289.408
  H     -141.819    -234.075    -288.880
  H     -139.464    -236.873    -292.794
  H     -138.440    -236.156    -291.573
  H     -139.095    -235.167    -292.856

 6  7  8  9  10  11  12  13  14  15  25  28  32  33  34  35 0
 6-311+G(2d,p)
 ****
 36  37  40 0
 6-311+G(2d,p)
 ****
 1  2  3  4  5  16  17  18  19  20  21  22  23  24 0
 3-21G
 ****
 26  27  29  30  31  38  39 41  42  43  44  45  46  47  48 0
 3-21G
 ****


