%nproc=1
%NoSave
%Mem=1900MB
#P OB98/GEN NMR

erre ene a

0 1
  C     -198.410     -88.288      98.007
  O     -197.904     -88.208      99.326
  H     -198.494     -89.341      97.728
  H     -197.730     -87.791      97.310
  H     -199.399     -87.828      97.955
  P     -197.648     -86.738      99.915
  C     -196.487     -84.594      99.019
  O     -196.662     -85.997      98.888
  C     -195.819     -84.042      97.761
  O     -196.786     -83.962      96.689
  C     -195.270     -82.630      97.919
  O     -194.031     -82.608      98.606
  C     -195.146     -82.208      96.464
  O     -193.914     -82.671      95.884
  C     -196.363     -82.897      95.811
  N     -197.444     -81.958      95.531
  C     -197.280     -81.171      94.396
  O     -196.295     -81.244      93.660
  N     -198.273     -80.262      94.148
  C     -199.371     -80.042      94.929
  O     -200.187     -79.161      94.692
  C     -199.498     -80.914      96.112
  C     -198.541     -81.813      96.360
  O     -196.728     -87.017     101.195
  O     -198.882     -85.972     100.263
  H     -197.262     -86.953     102.008
  H     -193.198     -82.204      96.361
  H     -198.166     -79.675      93.338
  H     -200.360     -80.771      96.751
  H     -198.602     -82.451      97.234
  H     -196.070     -83.369      94.864
  H     -195.152     -81.123      96.359
  H     -196.009     -81.986      98.412
  H     -195.023     -84.735      97.457
  H     -195.847     -84.385      99.883
  H     -197.463     -84.125      99.182
  P     -193.325     -81.192      98.868
  C     -192.522     -79.239      97.305
  O     -193.057     -80.544      97.422
  O     -191.875     -81.655      99.361
  O     -194.069     -80.318      99.820
  H     -191.559     -82.458      98.912
  H     -192.417     -78.988      96.270
  H     -191.564     -79.203      97.780
  H     -193.180     -78.540      97.777

 6  7  8  9  10  11  12  13  14  15  16  27  31  32  33  34  35 0
 6-311+G(2d,p)
 ****
 36  37 0
 6-311+G(2d,p)
 ****
 1  2  3  4  5  17  18  19  20  21  22  23  24  25 0
 3-21G
 ****
 26  28  29  30  38  39  40  41  42  43  44  45 0
 3-21G
 ****


