%nproc=1
%NoSave
%Mem=1900MB
#P OB98/GEN NMR

erre ene a

0 1
  C     -724.092     192.598     120.064
  O     -723.193     193.550     120.613
  P     -722.764     194.788     119.685
  C     -720.192     194.551     120.031
  O     -721.292     194.472     119.138
  C     -718.907     194.163     119.324
  O     -718.978     192.787     118.885
  C     -718.607     194.971     118.066
  O     -718.110     196.262     118.402
  C     -717.571     194.069     117.390
  O     -716.287     194.222     118.005
  C     -718.143     192.666     117.697
  N     -718.247     189.346     113.788
  C     -717.268     189.675     114.664
  N     -717.304     190.591     115.670
  C     -718.515     191.179     115.716
  C     -719.595     190.978     114.866
  C     -719.445     190.006     113.861
  N     -720.418     189.678     112.965
  N     -720.656     191.789     115.198
  C     -720.230     192.475     116.245
  N     -718.936     192.140     116.610
  O     -722.527     195.973     120.735
  O     -723.776     195.165     118.634
  H     -715.742     193.462     117.734
  H     -722.778     196.840     120.354
  H     -716.332     189.135     114.559
  H     -720.809     193.216     116.784
  H     -717.355     191.933     117.921
  H     -717.458     194.271     116.313
  H     -719.494     195.071     117.442
  H     -718.074     194.252     120.047
  H     -720.361     193.858     120.867
  H     -720.171     189.084     112.193
  H     -721.250     190.263     112.940
  H     -720.140     195.564     120.445
  P     -717.975     197.336     117.203
  C     -715.440     197.463     117.672
  O     -716.451     197.162     116.729
  O     -717.940     198.710     118.003
  O     -719.023     197.228     116.150
  H     -717.304     198.678     118.756
  H     -714.475     197.255     117.249
  H     -715.570     196.856     118.582
  H     -715.491     198.534     117.947
  H     -724.289     191.834     120.787
  H     -723.657     192.159     119.191
  H     -725.008     193.084     119.800

 3  4  5  6  7  8  9  10  11  12  22  25  29  30  31  32 0
 6-311+G(2d,p)
 ****
 33  36  37 0
 6-311+G(2d,p)
 ****
 1  2  13  14  15  16  17  18  19  20  21  23  24  26 0
 3-21G
 ****
 27  28  34  35  38  39  40  41  42  43  44  45  46  47  48 0
 3-21G
 ****


