%nproc=1
%NoSave
%Mem=1900MB
#P OB98/GEN NMR

erre ene a

0 1
  C      103.531     185.156    -193.421
  O      103.148     183.873    -193.932
  P      101.775     183.765    -194.752
  C      100.926     184.654    -197.049
  O      102.035     184.252    -196.256
  C      101.378     185.022    -198.466
  O      102.324     186.111    -198.465
  C      102.075     183.884    -199.200
  O      101.139     182.981    -199.768
  C      102.812     184.645    -200.289
  O      101.896     184.964    -201.362
  C      103.243     185.924    -199.562
  N      108.217     186.179    -200.763
  C      107.100     186.233    -201.521
  N      105.814     186.142    -201.138
  C      105.730     185.988    -199.801
  C      106.779     185.915    -198.894
  C      108.076     186.020    -199.422
  N      109.210     185.968    -198.640
  N      106.308     185.748    -197.610
  C      104.994     185.737    -197.737
  N      104.596     185.869    -199.040
  O      100.895     184.952    -194.132
  O      101.093     182.447    -194.613
  H      101.064     185.261    -200.947
  H       99.954     184.693    -194.114
  H      107.268     186.371    -202.593
  H      104.290     185.639    -196.914
  H      103.176     186.814    -200.206
  H      103.629     184.066    -200.732
  H      102.798     183.373    -198.541
  H      100.489     185.338    -199.033
  H      100.420     185.502    -196.582
  H      110.104     186.073    -199.095
  H      109.106     185.872    -197.643
  H      100.189     183.837    -197.072
  P      101.462     181.411    -199.649
  C      101.716     179.816    -197.605
  O      101.198     181.034    -198.108
  O      103.057     181.365    -199.793
  O      100.773     180.562    -200.660
  H      103.329     180.512    -200.200
  H      101.721     179.858    -196.516
  H      102.743     179.651    -197.957
  H      101.080     178.984    -197.927
  H      104.462     185.069    -192.901
  H      102.778     185.511    -192.748
  H      103.638     185.845    -194.232

 3  4  5  6  7  8  9  10  11  12  22  25  29  30  31  32 0
 6-311+G(2d,p)
 ****
 33  36  37 0
 6-311+G(2d,p)
 ****
 1  2  13  14  15  16  17  18  19  20  21  23  24  26 0
 3-21G
 ****
 27  28  34  35  38  39  40  41  42  43  44  45  46  47  48 0
 3-21G
 ****


