%nproc=1
%NoSave
%Mem=1900MB
#P OB98/GEN NMR

erre ene a

0 1
  C      427.735     396.204     -76.828
  O      427.689     394.789     -76.837
  H      428.062     396.540     -75.840
  H      426.738     396.609     -77.026
  H      428.442     396.570     -77.577
  P      427.459     394.093     -78.260
  C      425.022     393.170     -77.946
  O      426.415     392.890     -78.040
  C      424.215     391.888     -78.123
  O      424.452     391.310     -79.423
  C      424.592     390.774     -77.161
  O      424.145     391.017     -75.846
  C      423.908     389.585     -77.825
  O      422.529     389.488     -77.449
  C      424.049     389.923     -79.329
  N      424.975     389.028     -80.000
  C      424.385     387.945     -80.664
  O      423.161     387.815     -80.668
  N      425.198     387.022     -81.267
  C      426.488     387.153     -81.194
  N      427.240     386.186     -81.789
  C      427.150     388.280     -80.502
  C      426.339     389.171     -79.932
  O      428.846     393.333     -78.502
  O      427.072     395.026     -79.356
  H      422.127     388.825     -78.050
  H      429.138     392.802     -77.744
  H      428.228     388.350     -80.480
  H      426.740     390.030     -79.402
  H      423.074     389.846     -79.830
  H      424.380     388.639     -77.542
  H      425.678     390.601     -77.189
  H      423.150     392.141     -78.045
  H      426.748     385.405     -82.202
  H      424.727     393.913     -78.695
  H      428.248     386.144     -81.726
  H      424.837     393.606     -76.958
  P      424.596     390.082     -74.626
  C      422.134     389.462     -74.179
  O      423.340     389.982     -73.629
  O      425.878     390.462     -73.966
  O      424.616     388.616     -75.281
  H      423.761     388.321     -75.644
  H      421.376     389.445     -73.424
  H      422.304     388.468     -74.536
  H      421.815     390.083     -74.990

 6  7  8  9  10  11  12  13  14  15  16  26  30  31  32  33  35 0
 6-311+G(2d,p)
 ****
 37  38 0
 6-311+G(2d,p)
 ****
 1  2  3  4  5  17  18  19  20  21  22  23  24  25 0
 3-21G
 ****
 27  28  29  34  36  39  40  41  42  43  44  45  46 0
 3-21G
 ****


