%nproc=1
%NoSave
%Mem=1900MB
#P OB98/GEN NMR

erre ene a

0 1
  C      219.076      90.863     586.460
  O      219.805      89.679     586.131
  P      220.817      89.133     587.257
  C      219.281      87.287     588.246
  O      219.942      88.524     588.457
  C      219.769      86.231     589.238
  O      219.559      86.634     590.607
  C      219.075      84.889     589.085
  O      219.638      84.166     588.005
  C      219.342      84.248     590.442
  O      220.636      83.612     590.475
  C      219.308      85.445     591.401
  N      216.720      84.095     595.551
  C      217.918      83.605     595.048
  N      218.516      82.639     595.771
  N      218.470      84.030     593.948
  C      217.756      85.004     593.329
  C      216.572      85.582     593.737
  C      215.977      85.103     594.959
  O      214.931      85.514     595.453
  N      216.182      86.583     592.879
  C      217.056      86.508     591.889
  N      218.068      85.616     592.140
  O      221.444      90.478     587.873
  O      221.878      88.233     586.715
  H      220.664      82.917     589.788
  H      222.378      90.554     587.611
  H      216.341      83.724     596.404
  H      217.019      87.101     590.985
  H      220.104      85.385     592.154
  H      218.614      83.462     590.671
  H      218.155      82.265     596.637
  H      218.000      85.037     588.946
  H      219.406      82.279     595.433
  H      220.849      86.118     589.084
  H      219.462      86.941     587.222
  H      218.197      87.445     588.334
  P      218.642      83.424     586.997
  C      217.746      85.514     585.735
  O      217.476      84.450     586.631
  O      217.925      82.331     587.932
  O      219.312      82.773     585.831
  H      217.881      81.477     587.465
  H      216.834      85.772     585.196
  H      218.522      85.238     585.011
  H      218.080      86.381     586.310
  H      218.440      91.129     585.642
  H      219.761      91.662     586.654
  H      218.481      90.685     587.331

 3  4  5  6  7  8  9  10  11  12  23  26  30  31 0
 6-311+G(2d,p)
 ****
 33  35  36  37  38 0
 6-311+G(2d,p)
 ****
 1  2  13  14  15  16  17  18  19  20  21  22  24  25 0
 3-21G
 ****
 27  28  29  32  34  39  40  41  42  43  44  45  46  47  48  49 0
 3-21G
 ****


