%nproc=1
%NoSave
%Mem=1900MB
#P OB98/GEN NMR

erre ene a

0 1
  C      -17.860     333.043     109.272
  O      -18.631     333.394     110.403
  H      -17.008     333.723     109.205
  H      -18.454     333.136     108.359
  H      -17.483     332.021     109.370
  P      -19.969     332.566     110.700
  C      -22.395     332.639     109.813
  O      -21.049     333.055     109.619
  C      -23.100     332.479     108.469
  O      -22.553     331.356     107.748
  C      -24.603     332.233     108.574
  O      -25.298     333.454     108.766
  C      -24.878     331.613     107.214
  O      -24.902     332.644     106.207
  C      -23.640     330.720     107.018
  N      -24.462     325.884     105.706
  C      -24.513     327.031     104.937
  N      -24.863     326.871     103.643
  N      -24.260     328.229     105.401
  C      -23.991     328.245     106.724
  C      -23.929     327.179     107.594
  C      -24.149     325.852     107.058
  O      -24.087     324.808     107.698
  N      -23.723     327.596     108.884
  C      -23.610     328.907     108.788
  N      -23.774     329.353     107.498
  O      -20.467     332.606     112.113
  O      -19.626     331.076     110.226
  H      -25.119     332.216     105.360
  H      -19.278     330.543     110.964
  H      -24.676     324.990     105.296
  H      -23.404     329.576     109.615
  H      -23.339     330.658     105.967
  H      -25.840     331.098     107.169
  H      -25.214     326.001     103.268
  H      -24.839     331.498     109.351
  H      -24.963     327.709     103.077
  H      -22.890     333.376     107.870
  H      -22.891     333.407     110.415
  H      -22.427     331.691     110.360
  P      -26.857     333.479     109.162
  C      -29.005     332.807     107.889
  O      -27.647     333.195     107.794
  O      -27.296     334.701     109.891
  O      -27.081     332.120     109.967
  H      -26.861     332.199     110.927
  H      -29.401     332.652     106.907
  H      -29.562     333.576     108.381
  H      -29.078     331.899     108.450

 6  7  8  9  10  11  12  13  14  15  26  29  33  34 0
 6-311+G(2d,p)
 ****
 36  38  39  40  41 0
 6-311+G(2d,p)
 ****
 1  2  3  4  5  16  17  18  19  20  21  22  23  24  25 0
 3-21G
 ****
 27  28  30  31  32  35  37  42  43  44  45  46  47 0
 3-21G
 ****
 48  49 0
 3-21G
 ****


