%nproc=1
%NoSave
%Mem=1900MB
#P OB98/GEN NMR

erre ene a

0 1
  C      -74.996     612.225     -58.605
  O      -76.024     611.250     -58.703
  P      -76.066     610.091     -57.594
  C      -75.018     607.737     -57.393
  O      -74.967     609.001     -58.034
  C      -74.017     606.772     -58.013
  O      -74.512     606.364     -59.330
  C      -72.608     607.356     -58.219
  O      -71.630     606.386     -57.825
  C      -72.507     607.533     -59.727
  O      -71.159     607.508     -60.180
  C      -73.365     606.357     -60.198
  N      -71.857     605.675     -64.976
  C      -71.265     605.272     -63.800
  N      -70.071     604.643     -63.911
  N      -71.789     605.470     -62.619
  C      -73.001     606.077     -62.657
  C      -73.685     606.521     -63.758
  C      -73.079     606.351     -65.061
  O      -73.504     606.769     -66.134
  N      -74.901     607.070     -63.407
  C      -74.931     606.970     -62.090
  N      -73.781     606.418     -61.585
  O      -77.462     609.362     -57.893
  O      -75.986     610.558     -56.183
  H      -71.185     607.691     -61.139
  H      -78.010     609.361     -57.082
  H      -71.401     605.519     -65.863
  H      -75.749     607.314     -61.459
  H      -72.830     605.413     -60.055
  H      -72.957     608.499     -60.005
  H      -69.624     604.432     -64.785
  H      -72.433     608.300     -57.672
  H      -69.630     604.319     -63.063
  H      -73.973     605.861     -57.405
  H      -76.033     607.321     -57.495
  H      -74.795     607.864     -56.325
  P      -70.502     606.899     -56.807
  C      -68.127     607.926     -57.158
  O      -69.403     607.657     -57.705
  O      -69.763     605.547     -56.360
  O      -71.038     607.666     -55.640
  H      -69.341     605.657     -55.485
  H      -67.974     607.412     -56.197
  H      -68.024     608.994     -57.013
  H      -67.360     607.581     -57.860
  H      -75.094     612.928     -59.406
  H      -74.042     611.745     -58.667
  H      -75.078     612.737     -57.669

 3  4  5  6  7  8  9  10  11  12  23  26  30  31  33  0
 6-311+G(2d,p)
 ****
 35  36  37  38 0
 6-311+G(2d,p)
 ****
 1  2  13  14  15  16  17  18  19  20  21  22  24  25  27  28  29 0
 3-21G
 ****
 32  34  39  40  41  42  43  44  45  46  47  48  49 0
 3-21G
 ****


