%nproc=1
%NoSave
%Mem=1900MB
#P OB98/GEN NMR

erre ene a

0 1
  C     -191.312      61.044     -88.348
  O     -191.010      59.709     -87.997
  H     -190.942      61.708     -87.562
  H     -192.394      61.171     -88.431
  H     -190.833      61.320     -89.291
  P     -191.199      58.555     -89.093
  C     -189.051      57.251     -88.509
  O     -190.472      57.247     -88.515
  C     -188.509      56.093     -87.663
  O     -189.001      56.250     -86.296
  C     -188.950      54.698     -88.154
  O     -187.890      53.782     -87.842
  C     -190.162      54.451     -87.273
  O     -190.561      53.106     -87.299
  C     -189.638      55.004     -85.945
  N     -190.679      55.203     -84.945
  C     -190.834      54.216     -83.977
  O     -190.134      53.206     -83.909
  N     -191.846      54.418     -83.077
  C     -192.700      55.484     -83.056
  O     -193.577      55.627     -82.212
  C     -192.504      56.481     -84.123
  C     -191.519      56.298     -85.003
  O     -190.825      58.921     -90.491
  O     -192.753      58.179     -88.980
  H     -193.253      58.645     -89.676
  H     -190.976      52.886     -88.162
  H     -191.974      53.713     -82.368
  H     -193.180      57.326     -84.146
  H     -191.347      57.010     -85.804
  H     -188.864      54.350     -85.531
  H     -191.014      55.039     -87.628
  H     -189.159      54.669     -89.226
  H     -187.417      56.169     -87.618
  H     -188.714      58.207     -88.092
  H     -188.687      57.163     -89.539
  P     -187.344      52.683     -88.878
  C     -184.840      52.999     -88.350
  O     -185.943      52.102     -88.349
  O     -187.288      53.168     -90.292
  O     -188.345      51.440     -88.752
  H     -188.459      51.028     -89.629
  H     -183.971      52.497     -87.978
  H     -185.062      53.838     -87.724
  H     -184.656      53.337     -89.348

 6  7  8  9  10  11  12  13  14  15  16  27  31  32  33  34  35 0
 6-311+G(2d,p)
 ****
 36  37 0
 6-311+G(2d,p)
 ****
 1  2  3  4  5  17  18  19  20  21  22  23  24  25 0
 3-21G
 ****
 26  28  29  30  38  39  40  41  42  43  44  45 0
 3-21G
 ****


