%nproc=1
%NoSave
%Mem=1900MB
#P OB98/GEN NMR

erre ene a

0 1
  C     -348.162    1052.568     394.702
  O     -348.170    1053.164     395.986
  P     -348.911    1052.458     397.200
  C     -347.138    1053.661     398.625
  O     -348.472    1053.194     398.565
  C     -346.929    1054.561     399.848
  O     -347.324    1053.881     401.048
  C     -345.475    1054.975     400.083
  O     -345.037    1055.946     399.143
  C     -345.567    1055.464     401.525
  O     -346.080    1056.804     401.589
  C     -346.573    1054.460     402.152
  N     -345.920    1053.443     402.950
  C     -345.929    1053.677     404.336
  O     -346.374    1054.716     404.785
  N     -345.399    1052.707     405.156
  C     -344.811    1051.668     404.639
  N     -344.351    1050.693     405.497
  C     -344.646    1051.461     403.175
  C     -345.238    1052.380     402.414
  O     -348.814    1050.958     397.238
  O     -350.426    1052.901     397.037
  H     -351.006    1052.087     397.069
  H     -346.194    1057.025     402.537
  H     -344.089    1050.602     402.804
  H     -345.198    1052.297     401.321
  H     -347.304    1054.996     402.764
  H     -344.585    1055.460     402.011
  H     -344.841    1054.092     400.038
  H     -347.570    1055.458     399.732
  H     -344.516    1050.867     406.514
  H     -346.901    1054.222     397.718
  H     -344.210    1049.746     405.211
  H     -346.444    1052.810     398.660
  P     -343.583    1055.712     398.470
  C     -344.468    1057.196     396.523
  O     -343.382    1056.863     397.396
  O     -343.818    1054.391     397.584
  O     -342.495    1055.522     399.459
  H     -342.999    1053.830     397.607
  H     -344.267    1058.194     396.101
  H     -345.391    1057.192     397.055
  H     -344.476    1056.464     395.683
  H     -347.616    1053.190     394.023
  H     -349.168    1052.457     394.354
  H     -347.696    1051.607     394.758

 3  4  5  6  7  8  9  10  11  12  13  24  27  28  29  30  32 0
 6-311+G(2d,p)
 ****
 34  35 0
 6-311+G(2d,p)
 ****
 1  2  14  15  16  17  18  19  20  21  22  23  25  26 0
 3-21G
 ****
 31  33  36  37  38  39  40  41  42  43  44  45  46 0
 3-21G
 ****


