%nproc=1
%NoSave
%Mem=1900MB
#P OB98/GEN NMR

erre ene a

0 1
  C      -18.262      34.279       6.404
  O      -17.397      35.285       5.921
  H      -18.088      34.155       7.476
  H      -18.064      33.326       5.907
  H      -19.305      34.570       6.253
  P      -17.375      35.576       4.342
  C      -19.188      36.488       2.731
  O      -18.915      35.855       3.971
  C      -20.324      35.768       2.009
  O      -19.898      34.473       1.537
  C      -21.551      35.483       2.868
  O      -22.338      36.632       3.128
  C      -22.266      34.476       1.982
  O      -22.902      35.163       0.889
  C      -21.077      33.620       1.480
  N      -20.870      32.410       2.273
  C      -21.309      31.207       1.706
  O      -21.838      31.195       0.596
  N      -21.171      30.046       2.428
  C      -20.660      30.085       3.618
  N      -20.590      28.914       4.310
  C      -20.169      31.327       4.246
  C      -20.308      32.440       3.530
  O      -16.687      34.558       3.491
  O      -16.745      37.042       4.217
  H      -23.558      35.769       1.277
  H      -16.699      37.264       3.255
  H      -19.759      31.305       5.245
  H      -19.987      33.395       3.931
  H      -21.217      33.336       0.431
  H      -23.041      33.912       2.506
  H      -21.267      34.985       3.802
  H      -20.582      36.363       1.123
  H      -20.974      28.091       3.865
  H      -18.272      36.476       2.133
  H      -20.471      28.903       5.317
  H      -19.490      37.527       2.897
  P      -23.360      36.580       4.366
  C      -23.016      36.219       6.924
  O      -22.546      35.973       5.609
  O      -24.357      35.401       3.955
  O      -24.075      37.858       4.671
  H      -25.150      35.751       3.503
  H      -22.364      35.748       7.630
  H      -24.004      35.821       7.030
  H      -23.035      37.273       7.105

 6  7  8  9  10  11  12  13  14  15  16  26  30  31  32  33  35 0
 6-311+G(2d,p)
 ****
 37  38 0
 6-311+G(2d,p)
 ****
 1  2  3  4  5  17  18  19  20  21  22  23  24  25 0
 3-21G
 ****
 27  28  29  34  36  39  40  41  42  43  44  45  46 0
 3-21G
 ****


