%nproc=1
%NoSave
%Mem=1900MB
#P OB98/GEN NMR

erre ene a

0 1
  C     -103.985    1189.344    -200.731
  O     -103.709    1189.278    -202.126
  P     -102.386    1188.491    -202.574
  C     -103.611    1186.180    -202.720
  O     -102.856    1187.205    -203.406
  C     -104.928    1185.937    -203.464
  O     -105.802    1187.084    -203.317
  C     -104.782    1185.734    -204.957
  O     -104.282    1184.441    -205.256
  C     -106.215    1185.975    -205.419
  O     -107.034    1184.800    -205.165
  C     -106.662    1187.124    -204.499
  N     -108.904    1190.568    -207.554
  C     -109.282    1189.343    -207.149
  N     -108.628    1188.474    -206.350
  C     -107.442    1189.000    -205.972
  C     -106.920    1190.216    -206.323
  C     -107.685    1191.036    -207.158
  N     -107.307    1192.280    -207.585
  N     -105.653    1190.377    -205.751
  C     -105.462    1189.294    -205.044
  N     -106.513    1188.427    -205.131
  O     -101.846    1187.867    -201.203
  O     -101.356    1189.341    -203.256
  H     -106.605    1184.047    -205.604
  H     -100.864    1187.845    -201.202
  H     -110.273    1188.998    -207.502
  H     -104.569    1189.091    -204.457
  H     -107.678    1187.017    -204.170
  H     -106.293    1186.219    -206.490
  H     -104.121    1186.479    -205.411
  H     -105.402    1185.068    -203.001
  H     -103.828    1186.541    -201.693
  H     -107.841    1192.747    -208.298
  H     -106.338    1192.578    -207.390
  H     -103.010    1185.274    -202.656
  P     -103.290    1184.278    -206.517
  C     -101.263    1183.464    -205.156
  O     -102.286    1183.088    -206.072
  O     -102.384    1185.597    -206.378
  O     -103.975    1184.096    -207.840
  H     -102.049    1185.718    -205.481
  H     -100.703    1182.600    -204.921
  H     -101.721    1183.885    -204.261
  H     -100.596    1184.201    -205.622
  H     -104.889    1189.893    -200.572
  H     -103.177    1189.835    -200.230
  H     -104.096    1188.353    -200.342

 3  4  5  6  7  8  9  10  11  12  22  25  29  30  31  32 0
 6-311+G(2d,p)
 ****
 33  36  37 0
 6-311+G(2d,p)
 ****
 1  2  13  14  15  16  17  18  19  20  21  23  24  26 0
 3-21G
 ****
 27  28  34  35  38  39  40  41  42  43  44  45  46  47  48 0
 3-21G
 ****


