%nproc=1
%NoSave
%Mem=1900MB
#P OB98/GEN NMR

erre ene a

0 1
  C      -65.959      26.587     -59.007
  O      -65.802      26.298     -60.382
  H      -66.987      26.915     -58.832
  H      -65.278      27.388     -58.707
  H      -65.765      25.693     -58.410
  P      -64.321      25.897     -60.860
  C      -62.786      23.887     -60.218
  O      -63.955      24.640     -59.930
  C      -62.220      23.302     -58.928
  O      -61.908      24.352     -57.987
  C      -63.178      22.370     -58.195
  O      -63.234      21.074     -58.766
  C      -62.541      22.354     -56.818
  O      -61.371      21.515     -56.837
  C      -62.154      23.841     -56.649
  N      -63.188      24.631     -55.979
  C      -63.338      24.429     -54.602
  O      -62.634      23.616     -54.007
  N      -64.311      25.133     -53.933
  C      -65.061      25.972     -54.577
  N      -66.017      26.631     -53.868
  C      -64.925      26.227     -56.023
  C      -63.983      25.532     -56.653
  O      -63.402      27.059     -60.253
  O      -64.144      25.673     -62.323
  H      -61.137      21.334     -55.908
  H      -62.449      26.835     -60.387
  H      -65.581      26.929     -56.518
  H      -63.826      25.665     -57.718
  H      -61.219      23.941     -56.086
  H      -63.203      21.964     -56.043
  H      -64.180      22.805     -58.111
  H      -61.278      22.793     -59.173
  H      -66.127      26.389     -52.892
  H      -62.054      24.553     -60.685
  H      -66.757      27.160     -54.311
  H      -63.024      23.075     -60.911
  P      -64.507      20.160     -58.416
  C      -66.994      20.271     -59.154
  O      -65.813      20.992     -58.838
  O      -64.549      20.198     -56.818
  O      -64.443      18.760     -58.942
  H      -64.801      19.330     -56.451
  H      -67.772      20.958     -59.414
  H      -67.297      19.693     -58.306
  H      -66.803      19.619     -59.980

 6  7  8  9  10  11  12  13  14  15  16  26  30  31  32  33  35 0
 6-311+G(2d,p)
 ****
 37  38 0
 6-311+G(2d,p)
 ****
 1  2  3  4  5  17  18  19  20  21  22  23  24  25 0
 3-21G
 ****
 27  28  29  34  36  39  40  41  42  43  44  45  46 0
 3-21G
 ****


