%nproc=1
%NoSave
%Mem=1900MB
#P OB98/GEN NMR

erre ene a

0 1
  C      303.753     405.476    -548.514
  O      302.932     405.723    -549.634
  H      303.125     405.392    -547.625
  H      304.448     406.310    -548.372
  H      304.309     404.542    -548.644
  P      303.644     405.705    -551.076
  C      302.303     404.975    -553.216
  O      302.457     405.893    -552.147
  C      301.102     405.364    -554.081
  O      299.887     405.220    -553.289
  C      301.151     406.807    -554.597
  O      300.569     406.842    -555.907
  C      300.238     407.557    -553.634
  O      299.725     408.754    -554.199
  C      299.188     406.472    -553.321
  N      298.483     406.725    -552.055
  C      297.358     407.556    -552.123
  O      297.002     408.034    -553.198
  N      296.685     407.849    -550.958
  C      297.141     407.413    -549.825
  N      296.444     407.762    -548.704
  C      298.349     406.577    -549.711
  C      298.965     406.270    -550.849
  O      304.044     404.163    -551.225
  O      304.787     406.657    -551.210
  H      300.463     409.392    -554.312
  H      303.333     403.551    -550.958
  H      298.699     406.243    -548.734
  H      299.855     405.651    -550.853
  H      298.437     406.419    -554.118
  H      300.797     407.818    -552.718
  H      302.161     407.210    -554.627
  H      301.021     404.648    -554.913
  H      295.629     408.351    -548.833
  H      302.156     403.964    -552.826
  H      296.733     407.529    -547.775
  H      303.220     404.987    -553.819
  P      301.523     406.684    -557.187
  C      301.294     405.289    -559.355
  O      300.655     406.161    -558.435
  O      302.805     405.963    -556.964
  O      301.809     408.222    -557.594
  H      302.756     408.291    -557.850
  H      300.606     405.021    -560.129
  H      301.617     404.406    -558.844
  H      302.141     405.782    -559.785

 6  7  8  9  10  11  12  13  14  15  16  26  30  31  32  33  35 0
 6-311+G(2d,p)
 ****
 37  38 0
 6-311+G(2d,p)
 ****
 1  2  3  4  5  17  18  19  20  21  22  23  24  25 0
 3-21G
 ****
 27  28  29  34  36  39  40  41  42  43  44  45  46 0
 3-21G
 ****


