%nproc=1
%NoSave
%Mem=1900MB
#P OB98/GEN NMR

erre ene a

0 1
  C      357.720     223.124    -301.527
  O      358.817     224.026    -301.356
  P      358.549     225.568    -301.730
  C      358.259     226.529    -299.328
  O      359.065     226.458    -300.499
  C      359.006     227.249    -298.206
  O      358.121     227.550    -297.109
  C      360.136     226.437    -297.590
  O      361.311     226.483    -298.391
  C      360.350     227.181    -296.279
  O      361.184     228.334    -296.498
  C      358.924     227.615    -295.905
  N      356.915     227.440    -291.254
  C      357.449     228.508    -291.950
  N      357.415     229.705    -291.322
  N      357.965     228.411    -293.144
  C      357.901     227.159    -293.657
  C      357.400     226.021    -293.071
  C      356.858     226.136    -291.732
  O      356.405     225.213    -291.059
  N      357.498     224.937    -293.904
  C      358.032     225.425    -295.006
  N      358.310     226.764    -294.898
  O      356.954     225.688    -301.630
  O      359.056     225.963    -303.076
  H      362.061     228.006    -296.779
  H      356.634     226.403    -302.214
  H      356.537     227.566    -290.331
  H      358.235     224.850    -295.904
  H      358.890     228.649    -295.545
  H      360.850     226.568    -295.520
  H      356.968     229.862    -290.435
  H      359.817     225.405    -297.385
  H      357.770     230.504    -291.832
  H      359.395     228.193    -298.606
  H      357.988     225.522    -299.000
  H      357.325     227.047    -299.573
  P      362.186     225.142    -298.481
  C      361.835     224.713    -301.014
  O      362.729     225.086    -299.987
  O      361.082     223.980    -298.420
  O      363.212     225.000    -297.404
  H      361.462     223.175    -298.025
  H      360.862     225.199    -300.889
  H      361.704     223.627    -301.013
  H      362.253     225.019    -301.976
  H      358.023     222.137    -301.247
  H      357.414     223.125    -302.552
  H      356.903     223.435    -300.910

 3  4  5  6  7  8  9  10  11  12  23  26  30  31  33  0
 6-311+G(2d,p)
 ****
 35  36  37  38 0
 6-311+G(2d,p)
 ****
 1  2  13  14  15  16  17  18  19  20  21  22  24  25  27  28  29 0
 3-21G
 ****
 32  34  39  40  41  42  43  44  45  46  47  48  49 0
 3-21G
 ****


