%nproc=1
%NoSave
%Mem=1900MB
#P OB98/GEN NMR

erre ene a

0 1
  C        2.658     143.314     138.769
  O        3.764     143.559     137.921
  H        3.015     143.253     139.800
  H        2.183     142.366     138.503
  H        1.937     144.132     138.691
  P        3.445     143.709     136.355
  C        4.045     141.212     136.014
  O        3.053     142.223     135.890
  C        4.053     140.316     134.777
  O        2.932     139.415     134.798
  C        3.954     141.071     133.457
  O        5.219     141.586     133.073
  C        3.494     139.956     132.528
  O        4.620     139.142     132.150
  C        2.539     139.146     133.425
  N       -2.115     137.240     132.394
  C       -0.883     136.695     132.307
  N        0.312     137.272     132.557
  C        0.154     138.554     132.930
  C       -1.041     139.246     133.062
  C       -2.219     138.532     132.782
  N       -3.476     139.090     132.881
  N       -0.812     140.545     133.462
  C        0.495     140.620     133.622
  N        1.127     139.451     133.277
  O        4.485     144.403     135.545
  O        2.019     144.438     136.403
  H        4.270     138.335     131.727
  H        1.479     144.085     137.132
  H       -0.851     135.653     132.001
  H        1.029     141.486     133.998
  H        2.644     138.067     133.258
  H        3.054     140.340     131.605
  H        3.183     141.847     133.494
  H        4.963     139.705     134.812
  H        3.864     140.608     136.910
  H       -4.248     138.565     132.501
  H       -3.542     140.083     133.050
  H        5.012     141.712     136.124
  P        5.331     142.716     131.941
  C        5.109     140.952     130.084
  O        4.573     142.144     130.646
  O        6.712     143.214     131.681
  O        4.362     143.885     132.443
  H        4.749     144.759     132.240
  H        4.528     140.666     129.232
  H        5.081     140.170     130.814
  H        6.122     141.123     129.783

 6  7  8  9  10  11  12  13  14  15  25  28  32  33  34  35 0
 6-311+G(2d,p)
 ****
 36  39  40 0
 6-311+G(2d,p)
 ****
 1  2  3  4  5  16  17  18  19  20  21  22  23  24 0
 3-21G
 ****
 26  27  29  30  31  37  38  41  42  43  44  45  46  47 0
 3-21G
 ****
 48 0
 3-21G
 ****


