%nproc=1
%NoSave
%Mem=1900MB
#P OB98/GEN NMR

erre ene a

0 1
  C     -193.709     171.734      18.218
  O     -193.634     173.144      18.114
  P     -194.922     174.053      18.387
  C     -197.162     174.493      17.220
  O     -196.064     173.598      17.351
  C     -198.448     173.750      16.870
  O     -198.927     173.044      18.047
  C     -199.597     174.645      16.379
  O     -200.331     173.889      15.406
  C     -200.444     174.827      17.629
  O     -201.780     175.215      17.345
  C     -200.298     173.439      18.256
  N     -203.907     174.356      21.769
  C     -203.897     174.518      20.427
  N     -202.885     174.274      19.565
  C     -201.800     173.821      20.213
  C     -201.653     173.640      21.580
  C     -202.777     173.914      22.373
  N     -202.817     173.725      23.740
  N     -200.366     173.213      21.874
  C     -199.759     173.145      20.706
  N     -200.608     173.438      19.667
  O     -194.667     175.525      18.425
  O     -195.479     173.530      19.795
  H     -202.263     175.306      18.188
  H     -195.278     174.181      20.491
  H     -204.824     174.878      19.986
  H     -198.720     172.888      20.554
  H     -200.946     172.704      17.765
  H     -199.992     175.597      18.272
  H     -199.271     175.602      15.950
  H     -198.212     172.988      16.113
  H     -196.925     175.205      16.420
  H     -203.717     173.826      24.194
  H     -202.103     173.146      24.179
  H     -197.295     175.057      18.155
  P     -201.028     174.630      14.171
  C     -203.360     175.576      13.695
  O     -202.442     175.170      14.696
  O     -201.079     173.843      12.898
  O     -200.162     175.971      14.002
  H     -200.316     176.352      13.122
  H     -203.108     176.587      13.352
  H     -204.370     175.589      14.123
  H     -203.343     174.890      12.838
  H     -192.752     171.309      18.000
  H     -194.431     171.363      17.521
  H     -194.001     171.465      19.212

 3  4  5  6  7  8  9  10  11  12  22  25  29  30  31  32 0
 6-311+G(2d,p)
 ****
 33  36  37 0
 6-311+G(2d,p)
 ****
 1  2  13  14  15  16  17  18  19  20  21  23  24  26 0
 3-21G
 ****
 27  28  34  35  38  39  40  41  42  43  44  45  46  47  48 0
 3-21G
 ****


