%nproc=1
%NoSave
%Mem=1900MB
#P OB98/GEN NMR

erre ene a

0 1
  C      283.129    -124.014      52.987
  O      284.312    -123.992      53.766
  P      284.135    -124.082      55.364
  C      284.514    -121.864      56.703
  O      283.674    -122.618      55.838
  C      285.736    -121.369      55.929
  O      285.329    -120.755      54.686
  C      286.568    -120.325      56.667
  O      287.440    -120.953      57.594
  C      287.288    -119.637      55.510
  O      288.436    -120.399      55.085
  C      286.205    -119.616      54.425
  N      284.801    -115.724      51.523
  C      285.751    -116.703      51.293
  N      286.378    -116.665      50.097
  N      286.051    -117.642      52.153
  C      285.347    -117.546      53.309
  C      284.395    -116.612      53.664
  C      284.038    -115.615      52.681
  O      283.140    -114.785      52.790
  N      283.916    -116.829      54.930
  C      284.561    -117.909      55.331
  N      285.420    -118.396      54.383
  O      285.641    -124.206      55.887
  O      283.258    -125.194      55.851
  H      288.161    -121.306      54.865
  H      285.865    -125.138      56.081
  H      284.602    -115.033      50.810
  H      284.419    -118.384      56.294
  H      286.623    -119.760      53.424
  H      287.660    -118.646      55.795
  H      286.217    -115.961      49.392
  H      285.914    -119.611      57.176
  H      287.085    -117.378      49.914
  H      286.353    -122.243      55.673
  H      284.844    -122.503      57.530
  H      283.943    -121.026      57.110
  P      288.170    -120.014      58.673
  C      290.717    -119.751      58.206
  O      289.403    -119.308      57.926
  O      288.871    -121.071      59.654
  O      287.255    -119.097      59.419
  H      288.846    -120.728      60.572
  H      291.335    -119.595      57.321
  H      290.739    -120.813      58.473
  H      291.124    -119.166      59.040
  H      283.384    -123.948      51.950
  H      282.510    -123.184      53.255
  H      282.600    -124.927      53.167

 3  4  5  6  7  8  9  10  11  12  23  26  30  31 0
 6-311+G(2d,p)
 ****
 33  35  36  37  38 0
 6-311+G(2d,p)
 ****
 1  2  13  14  15  16  17  18  19  20  21  22  24  25 0
 3-21G
 ****
 27  28  29  32  34  39  40  41  42  43  44  45  46  47  48  49 0
 3-21G
 ****


