%nproc=1
%NoSave
%Mem=1900MB
#P OB98/GEN NMR

erre ene a

0 1
  C       52.308     140.547      22.448
  O       53.186     139.630      23.062
  H       52.421     140.465      21.364
  H       52.567     141.564      22.753
  H       51.267     140.340      22.709
  P       52.928     139.218      24.586
  C       54.370     141.147      25.512
  O       53.084     140.541      25.484
  C       54.954     141.182      26.924
  O       56.187     141.935      26.936
  C       54.025     141.878      27.920
  O       53.012     141.060      28.476
  C       55.007     142.336      28.994
  O       55.252     141.289      29.946
  C       56.273     142.637      28.188
  N       58.704     146.929      29.517
  C       58.765     145.679      30.102
  N       59.525     145.577      31.215
  N       58.123     144.638      29.643
  C       57.329     144.913      28.582
  C       57.176     146.113      27.926
  C       57.934     147.249      28.408
  O       57.911     148.380      27.931
  N       56.283     146.008      26.885
  C       55.844     144.769      26.961
  N       56.468     144.057      27.958
  O       54.238     138.379      24.977
  O       51.684     138.420      24.832
  H       54.405     141.049      30.363
  H       54.029     137.752      25.692
  H       59.242     147.689      29.897
  H       55.098     144.331      26.306
  H       57.171     142.268      28.700
  H       54.621     143.191      29.556
  H       59.942     146.375      31.669
  H       53.574     142.765      27.464
  H       59.385     144.762      31.815
  H       55.195     140.160      27.240
  H       54.246     142.165      25.134
  H       55.049     140.628      24.829
  P       51.473     141.474      28.320
  C       51.074     141.772      30.875
  O       51.098     142.369      29.597
  O       50.706     140.094      28.583
  O       51.112     142.068      27.003
  H       50.489     139.663      27.735
  H       50.807     142.506      31.607
  H       52.042     141.377      31.103
  H       50.355     140.980      30.885

 6  7  8  9  10  11  12  13  14  15  26  29  33  34 0
 6-311+G(2d,p)
 ****
 36  38  39  40  41 0
 6-311+G(2d,p)
 ****
 1  2  3  4  5  16  17  18  19  20  21  22  23  24  25 0
 3-21G
 ****
 27  28  30  31  32  35  37  42  43  44  45  46  47 0
 3-21G
 ****
 48  49 0
 3-21G
 ****


