%nproc=1
%NoSave
%Mem=1900MB
#P OB98/GEN NMR

erre ene a

0 1
  C      125.552      62.657    -112.221
  O      126.488      62.716    -111.160
  P      127.655      63.815    -111.267
  C      129.524      62.043    -110.900
  O      128.956      63.023    -111.764
  C      130.623      61.270    -111.622
  O      130.057      60.482    -112.684
  C      131.669      62.154    -112.281
  O      132.577      62.653    -111.319
  C      132.295      61.186    -113.278
  O      133.346      60.421    -112.665
  C      131.102      60.277    -113.660
  N      130.626      60.520    -115.011
  C      131.429      60.014    -116.040
  O      132.477      59.424    -115.772
  N      131.043      60.226    -117.340
  C      129.955      60.887    -117.588
  N      129.618      61.062    -118.895
  C      129.093      61.454    -116.533
  C      129.486      61.240    -115.278
  O      127.980      64.148    -109.737
  O      127.293      65.034    -112.052
  H      134.024      61.074    -112.394
  H      128.345      65.049    -109.650
  H      128.196      61.997    -116.794
  H      128.912      61.623    -114.443
  H      131.390      59.221    -113.585
  H      132.738      61.707    -114.130
  H      131.191      62.981    -112.821
  H      131.094      60.588    -110.901
  H      130.235      60.668    -119.597
  H      128.744      61.342    -110.588
  H      128.782      61.542    -119.192
  H      129.920      62.543    -110.010
  P      133.683      63.701    -111.813
  C      135.527      62.078    -111.080
  O      134.969      62.809    -112.154
  O      134.116      64.406    -110.440
  O      133.268      64.693    -112.847
  H      134.727      65.144    -110.624
  H      136.289      61.401    -111.475
  H      134.757      61.488    -110.576
  H      135.998      62.761    -110.369
  H      124.836      61.887    -112.022
  H      126.063      62.441    -113.136
  H      125.050      63.598    -112.306

 3  4  5  6  7  8  9  10  11  12  13  21  23  27  28  29  30  32 0
 6-311+G(2d,p)
 ****
 34  35 0
 6-311+G(2d,p)
 ****
 1  2  14  15  16  17  18  19  20  22  24  25  26 0
 3-21G
 ****
 31  33  36  37  38  39  40  41  42  43  44  45  46 0
 3-21G
 ****


