%nproc=1
%NoSave
%Mem=1900MB
#P OB98/GEN NMR

erre ene a

0 1
  C      296.035     297.906     216.665
  O      296.778     297.132     215.742
  P      296.256     296.949     214.235
  C      294.050     296.246     213.117
  O      294.870     296.145     214.281
  C      292.705     295.571     213.351
  O      291.744     296.508     213.895
  C      292.052     295.026     212.089
  O      292.699     293.862     211.620
  C      290.617     294.826     212.568
  O      290.491     293.597     213.297
  C      290.432     296.035     213.510
  N      289.644     297.096     212.900
  C      288.399     297.351     213.489
  O      287.990     296.649     214.414
  N      287.652     298.395     213.005
  C      288.044     299.039     211.955
  N      287.295     300.104     211.561
  C      289.269     298.691     211.205
  C      290.025     297.732     211.745
  O      297.264     296.408     213.275
  O      295.796     298.420     213.807
  H      296.200     298.638     212.942
  H      290.956     292.914     212.774
  H      289.524     299.219     210.297
  H      290.958     297.428     211.274
  H      289.944     295.718     214.436
  H      289.907     294.786     211.734
  H      292.072     295.796     211.307
  H      292.849     294.765     214.085
  H      286.473     300.324     212.105
  H      294.569     295.760     212.287
  H      287.669     300.854     210.975
  H      293.913     297.301     212.863
  P      292.862     293.711     210.030
  C      291.249     293.284     208.047
  O      291.456     293.221     209.446
  O      293.811     292.434     209.871
  O      293.452     294.910     209.350
  H      294.415     292.561     209.116
  H      290.428     292.615     207.785
  H      292.148     292.978     207.497
  H      290.979     294.303     207.764
  H      296.536     297.912     217.610
  H      295.059     297.482     216.782
  H      295.947     298.908     216.301

 3  4  5  6  7  8  9  10  11  12  13  24  27  28  29  30  32 0
 6-311+G(2d,p)
 ****
 34  35 0
 6-311+G(2d,p)
 ****
 1  2  14  15  16  17  18  19  20  21  22  23  25  26 0
 3-21G
 ****
 31  33  36  37  38  39  40  41  42  43  44  45  46 0
 3-21G
 ****


