%nproc=1
%NoSave
%Mem=1900MB
#P OB98/GEN NMR

erre ene a

0 1
  C       86.226      85.010     342.744
  O       86.439      84.280     341.534
  P       86.622      82.694     341.692
  C       86.046      81.951     339.277
  O       87.056      82.112     340.259
  C       86.074      83.099     338.263
  O       87.431      83.319     337.773
  C       85.184      82.857     337.032
  O       84.655      84.131     336.646
  C       86.193      82.357     336.007
  O       85.707      82.405     334.674
  C       87.366      83.273     336.332
  N       91.187      84.514     333.188
  C       90.057      85.165     333.535
  N       89.083      84.763     334.380
  C       89.372      83.553     334.892
  C       90.481      82.768     334.628
  C       91.425      83.295     333.730
  N       92.569      82.629     333.351
  N       90.410      81.571     335.330
  C       89.239      81.620     335.940
  N       88.620      82.825     335.771
  O       85.128      82.160     341.889
  O       87.519      82.307     342.822
  H       86.373      82.031     334.066
  H       84.942      82.003     342.834
  H       89.914      86.136     333.070
  H       88.799      80.815     336.509
  H       87.200      84.298     335.975
  H       86.444      81.313     336.226
  H       84.359      82.166     337.215
  H       85.759      84.018     338.772
  H       85.061      81.920     339.753
  H       93.182      83.087     332.696
  H       92.776      81.712     333.722
  H       86.177      80.982     338.784
  P       83.103      84.239     336.252
  C       82.718      86.449     337.496
  O       82.801      85.815     336.234
  O       82.418      83.807     337.637
  O       82.664      83.436     335.075
  H       82.794      84.305     338.387
  H       82.590      87.522     337.340
  H       83.634      86.280     338.067
  H       81.854      86.068     338.051
  H       86.118      86.050     342.519
  H       87.063      84.871     343.396
  H       85.338      84.655     343.223

 3  4  5  6  7  8  9  10  11  12  22  25  29  30  31  32 0
 6-311+G(2d,p)
 ****
 33  36  37 0
 6-311+G(2d,p)
 ****
 1  2  13  14  15  16  17  18  19  20  21  23  24  26 0
 3-21G
 ****
 27  28  34  35  38  39  40  41  42  43  44  45  46  47  48 0
 3-21G
 ****


