%nproc=1
%NoSave
%Mem=1900MB
#P OB98/GEN NMR

erre ene a

0 1
  C     -118.144     546.516     264.360
  O     -116.751     546.194     264.375
  P     -116.231     545.051     263.380
  C     -114.484     543.713     264.861
  O     -114.749     544.607     263.797
  C     -112.975     543.745     265.180
  O     -112.628     544.985     265.840
  C     -112.526     542.596     266.085
  O     -112.218     541.431     265.357
  C     -111.331     543.208     266.798
  O     -110.185     543.199     265.934
  C     -111.824     544.665     267.016
  N     -112.631     544.951     268.226
  C     -112.153     545.858     269.174
  O     -111.090     546.452     269.093
  N     -112.970     546.076     270.263
  C     -114.245     545.628     270.401
  O     -114.951     545.909     271.378
  C     -114.760     544.802     269.312
  C     -113.934     544.499     268.295
  O     -116.018     545.822     261.995
  O     -117.152     543.883     263.231
  H     -110.371     543.813     265.196
  H     -116.632     545.478     261.320
  H     -112.606     546.670     270.992
  H     -115.789     544.463     269.363
  H     -114.302     543.878     267.482
  H     -110.977     545.358     267.035
  H     -111.055     542.637     267.675
  H     -113.300     542.402     266.843
  H     -112.417     543.704     264.229
  H     -114.798     542.698     264.605
  H     -115.061     544.016     265.746
  P     -112.381     540.000     266.047
  C     -109.930     539.246     265.789
  O     -111.265     539.053     265.357
  O     -113.764     539.430     266.084
  O     -111.779     540.205     267.521
  H     -112.495     540.400     268.170
  H     -109.315     538.448     265.368
  H     -109.875     539.193     266.887
  H     -109.564     540.212     265.442
  H     -118.339     547.291     265.072
  H     -118.714     545.647     264.614
  H     -118.422     546.851     263.383

 3  4  5  6  7  8  9  10  11  12  13  23  28  29  30  31  32 0
 6-311+G(2d,p)
 ****
 33  34 0
 6-311+G(2d,p)
 ****
 1  2  14  15  16  17  18  19  20  21  22  24  25  26  27 0
 3-21G
 ****
 35  36  37  38  39  40  41  42  43  44  45 0
 3-21G
 ****


