%nproc=1
%NoSave
%Mem=1900MB
#P OB98/GEN NMR

erre ene a

0 1
  C       34.402     247.908     517.855
  O       33.282     248.017     516.997
  H       34.054     247.934     518.891
  H       35.079     248.749     517.689
  H       34.928     246.965     517.681
  P       33.553     247.766     515.439
  C       32.486     245.426     514.925
  O       33.656     246.174     515.221
  C       32.799     243.933     514.945
  O       33.904     243.632     514.068
  C       33.260     243.410     516.295
  O       32.209     243.327     517.233
  C       33.827     242.054     515.896
  O       32.800     241.057     515.816
  C       34.416     242.344     514.495
  N       35.867     242.304     514.502
  C       36.429     241.020     514.538
  O       35.702     240.028     514.539
  N       37.792     240.903     514.607
  C       38.529     241.968     514.668
  N       39.873     241.782     514.770
  C       37.976     243.338     514.636
  C       36.651     243.431     514.554
  O       35.065     248.257     515.268
  O       32.586     248.435     514.520
  H       32.170     241.365     515.134
  H       35.672     247.891     515.931
  H       38.633     244.193     514.673
  H       36.160     244.397     514.525
  H       34.055     241.609     513.765
  H       34.564     241.697     516.617
  H       34.087     244.025     516.677
  H       31.913     243.392     514.589
  H       40.205     240.827     514.845
  H       32.080     245.715     513.951
  H       40.536     242.532     514.902
  H       31.734     245.667     515.682
  P       32.248     244.156     518.602
  C       30.414     245.934     518.259
  O       31.813     245.662     518.242
  O       33.518     244.055     519.377
  O       30.960     243.618     519.386
  H       30.112     243.753     518.925
  H       30.247     246.960     518.006
  H       30.025     245.740     519.237
  H       29.920     245.306     517.547

 6  7  8  9  10  11  12  13  14  15  16  26  30  31  32  33  35 0
 6-311+G(2d,p)
 ****
 37  38 0
 6-311+G(2d,p)
 ****
 1  2  3  4  5  17  18  19  20  21  22  23  24  25 0
 3-21G
 ****
 27  28  29  34  36  39  40  41  42  43  44  45  46 0
 3-21G
 ****


