%nproc=1
%NoSave
%Mem=1900MB
#P OB98/GEN NMR

erre ene a

0 1
  C     -204.040     224.166    -143.190
  O     -204.518     223.462    -144.316
  H     -203.465     225.030    -143.533
  H     -203.384     223.523    -142.598
  H     -204.872     224.518    -142.574
  P     -205.524     222.241    -144.052
  C     -204.727     220.493    -145.797
  O     -205.694     221.474    -145.453
  C     -204.737     220.242    -147.306
  O     -206.043     219.734    -147.686
  C     -204.458     221.495    -148.139
  O     -203.656     221.127    -149.265
  C     -205.834     221.923    -148.617
  O     -205.786     222.686    -149.822
  C     -206.553     220.573    -148.741
  N     -208.002     220.729    -148.657
  C     -208.626     221.377    -149.727
  O     -207.957     221.793    -150.675
  N     -209.979     221.590    -149.674
  C     -210.639     221.264    -148.607
  N     -211.974     221.529    -148.603
  C     -210.012     220.640    -147.427
  C     -208.705     220.396    -147.522
  O     -206.938     222.962    -143.857
  O     -205.171     221.359    -142.902
  H     -206.681     222.681    -150.226
  H     -207.506     222.466    -143.236
  H     -210.600     220.409    -146.551
  H     -208.156     219.947    -146.703
  H     -206.305     220.091    -149.697
  H     -206.314     222.539    -147.847
  H     -203.954     222.284    -147.575
  H     -204.010     219.453    -147.532
  H     -212.365     221.974    -149.425
  H     -204.969     219.559    -145.281
  H     -212.577     221.359    -147.812
  H     -203.736     220.829    -145.473
  P     -202.241     221.863    -149.412
  C     -201.701     222.287    -151.918
  O     -201.584     221.411    -150.804
  O     -201.332     221.141    -148.310
  O     -202.306     223.339    -149.192
  H     -201.165     221.748    -147.565
  H     -201.217     221.851    -152.767
  H     -201.238     223.223    -151.686
  H     -202.736     222.446    -152.140

 6  7  8  9  10  11  12  13  14  15  16  26  30  31  32  33  35 0
 6-311+G(2d,p)
 ****
 37  38 0
 6-311+G(2d,p)
 ****
 1  2  3  4  5  17  18  19  20  21  22  23  24  25 0
 3-21G
 ****
 27  28  29  34  36  39  40  41  42  43  44  45  46 0
 3-21G
 ****


