%nproc=1
%NoSave
%Mem=1900MB
#P OB98/GEN NMR

erre ene a

0 1
  C      266.273     775.182    -165.174
  O      266.074     775.306    -166.568
  H      265.488     774.538    -164.768
  H      266.198     776.161    -164.690
  H      267.241     774.730    -164.963
  P      267.062     776.238    -167.419
  C      268.236     774.036    -168.049
  O      268.416     775.377    -167.594
  C      269.377     773.613    -168.968
  O      269.332     774.388    -170.194
  C      270.777     773.807    -168.357
  O      271.567     772.635    -168.562
  C      271.357     774.962    -169.156
  O      272.783     774.975    -169.165
  C      270.687     774.741    -170.512
  N      270.786     775.913    -171.370
  C      271.996     776.092    -172.047
  O      272.915     775.268    -171.906
  N      272.162     777.206    -172.827
  C      271.224     778.103    -172.884
  N      271.471     779.198    -173.648
  C      269.939     777.966    -172.176
  C      269.785     776.848    -171.446
  O      267.256     777.611    -166.872
  O      266.451     776.232    -168.903
  H      273.084     775.831    -169.553
  H      266.775     777.029    -169.383
  H      269.183     778.733    -172.239
  H      268.872     776.667    -170.889
  H      271.149     773.883    -171.043
  H      271.021     775.912    -168.729
  H      270.745     774.038    -167.289
  H      269.216     772.572    -169.268
  H      272.367     779.255    -174.108
  H      267.275     773.968    -168.573
  H      270.820     779.965    -173.750
  H      268.218     773.375    -167.174
  P      272.246     772.006    -167.251
  C      270.576     770.018    -167.156
  O      271.138     771.131    -166.480
  O      272.470     773.280    -166.301
  O      273.536     771.291    -167.539
  H      273.436     773.465    -166.242
  H      269.860     769.539    -166.521
  H      271.351     769.324    -167.407
  H      270.092     770.351    -168.051

 6  7  8  9  10  11  12  13  14  15  16  26  30  31  32  33  35 0
 6-311+G(2d,p)
 ****
 37  38 0
 6-311+G(2d,p)
 ****
 1  2  3  4  5  17  18  19  20  21  22  23  24  25 0
 3-21G
 ****
 27  28  29  34  36  39  40  41  42  43  44  45  46 0
 3-21G
 ****


