%nproc=1
%NoSave
%Mem=1900MB
#P OB98/GEN NMR

erre ene a

0 1
  C      588.444     205.415    -141.898
  O      588.928     206.016    -140.696
  P      589.050     205.119    -139.379
  C      587.600     206.561    -137.813
  O      588.908     206.060    -138.087
  C      587.662     207.747    -136.838
  O      588.473     207.400    -135.673
  C      588.299     208.997    -137.465
  O      587.703     210.189    -136.915
  C      589.738     208.933    -136.983
  O      590.369     210.213    -137.044
  C      589.543     208.372    -135.567
  N      593.440     208.986    -132.301
  C      592.357     209.759    -132.557
  N      591.350     209.519    -133.423
  C      591.530     208.344    -134.066
  C      592.577     207.449    -133.892
  C      593.579     207.819    -132.974
  N      594.693     207.043    -132.727
  N      592.423     206.344    -134.715
  C      591.324     206.594    -135.399
  N      590.728     207.763    -135.012
  O      590.214     204.182    -139.336
  O      587.667     204.305    -139.366
  H      591.230     210.139    -136.597
  H      587.836     203.374    -139.120
  H      592.293     210.686    -131.997
  H      590.924     205.968    -136.187
  H      589.208     209.154    -134.869
  H      590.304     208.239    -137.604
  H      588.229     209.036    -138.561
  H      586.661     207.967    -136.462
  H      586.980     205.766    -137.395
  H      595.411     207.450    -132.138
  H      594.879     206.253    -133.325
  H      587.123     206.849    -138.756
  P      587.321     211.333    -137.978
  C      588.954     213.188    -137.093
  O      587.629     212.735    -137.246
  O      585.943     211.178    -138.558
  O      588.492     211.187    -139.069
  H      589.389     211.178    -138.700
  H      588.937     214.195    -136.695
  H      589.475     213.186    -138.053
  H      589.488     212.536    -136.390
  H      588.424     206.146    -142.679
  H      587.455     205.039    -141.736
  H      589.090     204.610    -142.179

 3  4  5  6  7  8  9  10  11  12  22  25  29  30  31  32 0
 6-311+G(2d,p)
 ****
 33  36  37 0
 6-311+G(2d,p)
 ****
 1  2  13  14  15  16  17  18  19  20  21  23  24  26 0
 3-21G
 ****
 27  28  34  35  38  39  40  41  42  43  44  45  46  47  48 0
 3-21G
 ****


