%nproc=1
%NoSave
%Mem=1900MB
#P OB98/GEN NMR

erre ene a

0 1
  C      -38.396       7.153     124.963
  O      -37.438       6.515     124.141
  P      -36.609       7.368     123.071
  C      -34.170       6.770     123.617
  O      -35.200       7.746     123.735
  C      -32.819       7.378     123.982
  O      -32.781       7.714     125.384
  C      -31.636       6.445     123.752
  O      -31.312       6.370     122.378
  C      -30.571       7.099     124.624
  O      -29.958       8.200     123.934
  C      -31.403       7.606     125.812
  N      -29.815       7.307     130.648
  C      -29.626       8.243     129.695
  N      -30.050       8.232     128.413
  C      -30.715       7.096     128.148
  C      -30.956       6.036     129.007
  C      -30.493       6.180     130.325
  N      -30.733       5.260     131.322
  N      -31.645       5.032     128.351
  C      -31.806       5.477     127.123
  N      -31.318       6.744     126.972
  O      -37.345       8.511     122.456
  O      -36.204       6.291     121.958
  H      -30.672       8.705     123.501
  H      -36.587       6.554     121.100
  H      -29.068       9.122     130.004
  H      -32.281       4.930     126.319
  H      -31.092       8.609     126.128
  H      -29.773       6.406     124.905
  H      -31.864       5.450     124.150
  H      -32.696       8.306     123.409
  H      -34.150       6.415     122.582
  H      -30.483       5.529     132.261
  H      -31.478       4.582     131.183
  H      -34.396       5.925     124.275
  P      -31.403       4.967     121.614
  C      -33.108       5.491     119.772
  O      -32.886       4.856     121.016
  O      -30.937       3.778     122.386
  O      -30.510       5.194     120.304
  H      -30.089       4.352     120.048
  H      -33.216       6.568     119.924
  H      -34.030       5.098     119.337
  H      -32.281       5.299     119.082
  H      -38.847       6.431     125.611
  H      -39.149       7.602     124.350
  H      -37.916       7.908     125.550

 3  4  5  6  7  8  9  10  11  12  22  25  29  30  31  32 0
 6-311+G(2d,p)
 ****
 33  36  37 0
 6-311+G(2d,p)
 ****
 1  2  13  14  15  16  17  18  19  20  21  23  24  26 0
 3-21G
 ****
 27  28  34  35  38  39  40  41  42  43  44  45  46  47  48 0
 3-21G
 ****


