%nproc=1
%NoSave
%Mem=1900MB
#P OB98/GEN NMR

erre ene a

0 1
  C     -256.465     764.801     293.352
  O     -256.379     766.129     292.852
  P     -257.140     767.334     293.583
  C     -259.499     766.851     292.532
  O     -258.406     767.732     292.700
  C     -260.359     767.338     291.360
  O     -260.872     768.663     291.638
  C     -259.551     767.408     290.067
  O     -259.716     766.214     289.307
  C     -260.121     768.633     289.382
  O     -261.354     768.312     288.708
  C     -260.408     769.560     290.584
  N     -259.286     770.357     291.135
  C     -258.590     771.229     290.300
  O     -258.862     771.400     289.118
  N     -257.525     771.877     290.874
  C     -257.142     771.773     292.181
  O     -256.066     772.161     292.622
  C     -258.072     771.063     293.063
  C     -259.070     770.380     292.506
  O     -256.138     768.564     293.370
  O     -257.459     767.109     295.026
  H     -261.932     767.859     289.356
  H     -255.599     768.710     294.169
  H     -256.932     772.395     290.243
  H     -257.885     771.076     294.133
  H     -259.755     769.812     293.135
  H     -261.220     770.258     290.367
  H     -259.444     769.007     288.614
  H     -258.494     767.590     290.279
  H     -261.220     766.666     291.241
  H     -260.088     766.811     293.449
  H     -259.132     765.838     292.336
  P     -258.426     765.374     288.869
  C     -257.823     766.921     286.919
  O     -258.274     765.640     287.296
  O     -258.423     763.939     289.283
  O     -257.217     766.193     289.522
  H     -256.947     765.766     290.374
  H     -257.592     766.914     285.853
  H     -256.919     767.194     287.474
  H     -258.614     767.660     287.097
  H     -255.891     764.147     292.729
  H     -257.488     764.486     293.354
  H     -256.081     764.770     294.350

 3  4  5  6  7  8  9  10  11  12  13  23  28  29  30  31  32 0
 6-311+G(2d,p)
 ****
 33  34 0
 6-311+G(2d,p)
 ****
 1  2  14  15  16  17  18  19  20  21  22  24  25  26  27 0
 3-21G
 ****
 35  36  37  38  39  40  41  42  43  44  45 0
 3-21G
 ****


