%nproc=1
%NoSave
%Mem=1900MB
#P OB98/GEN NMR

erre ene a

0 1
  C      191.716     220.412     -57.578
  O      190.680     219.673     -58.206
  P      189.372     220.474     -58.681
  C      187.132     219.739     -57.578
  O      188.355     220.453     -57.441
  C      187.282     218.326     -57.021
  O      187.875     218.358     -55.704
  C      185.963     217.579     -56.847
  O      185.504     217.013     -58.065
  C      186.372     216.487     -55.875
  O      187.040     215.423     -56.578
  C      187.360     217.224     -54.957
  N      185.039     215.784     -50.700
  C      185.708     215.023     -51.640
  N      185.709     213.689     -51.447
  N      186.329     215.531     -52.676
  C      186.234     216.883     -52.745
  C      185.601     217.744     -51.875
  C      184.909     217.165     -50.740
  O      184.254     217.778     -49.903
  N      185.731     219.044     -52.270
  C      186.445     218.982     -53.377
  N      186.735     217.689     -53.729
  O      188.692     219.477     -59.732
  O      189.644     221.816     -59.273
  H      187.886     215.791     -56.901
  H      188.045     219.961     -60.280
  H      184.570     215.342     -49.921
  H      186.757     219.839     -53.963
  H      188.214     216.596     -54.689
  H      185.519     216.037     -55.355
  H      185.201     213.229     -50.704
  H      185.202     218.217     -56.384
  H      186.142     213.103     -52.152
  H      187.959     217.767     -57.683
  H      186.861     219.687     -58.635
  H      186.340     220.275     -57.044
  P      183.993     216.463     -58.081
  C      184.170     213.885     -57.820
  O      184.012     215.139     -57.182
  O      183.824     215.918     -59.575
  O      182.963     217.487     -57.729
  H      182.887     215.941     -59.844
  H      184.427     213.138     -57.063
  H      184.974     213.919     -58.561
  H      183.234     213.591     -58.303
  H      192.517     219.752     -57.318
  H      191.336     220.878     -56.693
  H      192.076     221.163     -58.250

 3  4  5  6  7  8  9  10  11  12  23  26  30  31 0
 6-311+G(2d,p)
 ****
 33  35  36  37  38 0
 6-311+G(2d,p)
 ****
 1  2  13  14  15  16  17  18  19  20  21  22  24  25 0
 3-21G
 ****
 27  28  29  32  34  39  40  41  42  43  44  45  46  47  48  49 0
 3-21G
 ****


