%nproc=1
%NoSave
%Mem=1900MB
#P OB98/GEN NMR

erre ene a

0 1
  C      152.082      49.668      52.828
  O      150.825      49.045      53.017
  P      150.378      48.710      54.520
  C      148.203      50.135      54.717
  O      149.571      49.980      55.070
  C      147.684      51.477      55.238
  O      148.386      52.567      54.605
  C      146.210      51.715      54.946
  O      145.380      51.011      55.857
  C      146.110      53.228      55.079
  O      145.958      53.616      56.453
  C      147.477      53.686      54.531
  N      147.386      54.223      53.176
  C      146.703      55.430      53.045
  O      146.180      56.010      53.998
  N      146.604      55.927      51.775
  C      147.063      55.324      50.639
  O      146.896      55.793      49.520
  C      147.752      54.037      50.836
  C      147.873      53.551      52.074
  O      151.751      48.744      55.345
  O      149.668      47.409      54.680
  H      146.719      53.235      56.935
  H      151.730      48.069      56.049
  H      146.136      56.811      51.661
  H      148.128      53.531      49.957
  H      148.364      52.598      52.237
  H      147.901      54.462      55.179
  H      145.251      53.634      54.535
  H      145.982      51.431      53.910
  H      147.877      51.527      56.317
  H      147.622      49.320      55.154
  H      148.107      50.081      53.628
  P      144.121      50.228      55.237
  C      144.765      47.781      55.889
  O      144.674      48.766      54.883
  O      143.969      50.972      53.827
  O      142.912      50.288      56.108
  H      144.827      51.265      53.474
  H      143.943      47.863      56.605
  H      145.717      47.886      56.415
  H      144.726      46.794      55.420
  H      152.246      49.830      51.783
  H      152.854      49.038      53.217
  H      152.095      50.607      53.341

 3  4  5  6  7  8  9  10  11  12  13  23  28  29  30  31  32 0
 6-311+G(2d,p)
 ****
 33  34 0
 6-311+G(2d,p)
 ****
 1  2  14  15  16  17  18  19  20  21  22  24  25  26 0
 3-21G
 ****
 27  35  36  37  38  39  40  41  42  43  44  45 0
 3-21G
 ****


