%nproc=1
%NoSave
%Mem=1900MB
#P OB98/GEN NMR

erre ene a

0 1
  C     -319.200      78.906      -4.645
  O     -320.159      79.014      -5.685
  P     -320.132      78.018      -6.945
  C     -322.713      77.921      -7.044
  O     -321.513      78.287      -7.714
  C     -323.833      78.890      -7.420
  O     -323.616      80.152      -6.766
  C     -323.921      79.204      -8.910
  O     -324.516      78.134      -9.624
  C     -324.721      80.502      -8.883
  O     -326.120      80.224      -8.710
  C     -324.165      81.191      -7.613
  N     -323.165      82.211      -7.913
  C     -323.572      83.253      -8.750
  O     -324.719      83.304      -9.191
  N     -322.673      84.251      -9.040
  C     -321.465      84.198      -8.560
  N     -320.640      85.246      -8.823
  C     -320.981      83.085      -7.721
  C     -321.875      82.140      -7.439
  O     -319.874      76.589      -6.606
  O     -319.053      78.652      -7.936
  H     -326.412      79.747      -9.509
  H     -318.130      78.340      -7.770
  H     -319.966      83.079      -7.354
  H     -321.603      81.302      -6.812
  H     -324.980      81.650      -7.046
  H     -324.605      81.105      -9.789
  H     -322.922      79.398      -9.319
  H     -324.781      78.474      -7.062
  H     -321.066      86.062      -9.250
  H     -322.541      77.974      -5.966
  H     -319.814      85.423      -8.268
  H     -322.977      76.891      -7.311
  P     -324.309      78.093     -11.214
  C     -324.652      75.523     -11.153
  O     -325.049      76.761     -11.719
  O     -322.750      77.774     -11.372
  O     -324.703      79.351     -11.915
  H     -322.256      78.590     -11.581
  H     -325.396      74.768     -11.419
  H     -324.598      75.598     -10.066
  H     -323.683      75.224     -11.559
  H     -319.390      79.656      -3.905
  H     -318.219      79.044      -5.049
  H     -319.268      77.937      -4.196

 3  4  5  6  7  8  9  10  11  12  13  23  27  28  29  30  32 0
 6-311+G(2d,p)
 ****
 34  35 0
 6-311+G(2d,p)
 ****
 1  2  14  15  16  17  18  19  20  21  22  24  25  26 0
 3-21G
 ****
 31  33  36  37  38  39  40  41  42  43  44  45  46 0
 3-21G
 ****


