%nproc=1
%NoSave
%Mem=1900MB
#P OB98/GEN NMR

erre ene a

0 1
  C     -532.770     336.743    -404.760
  O     -532.874     335.913    -405.900
  H     -531.882     337.371    -404.862
  H     -532.663     336.127    -403.863
  H     -533.650     337.388    -404.667
  P     -534.270     335.153    -406.115
  C     -535.230     332.866    -405.335
  O     -534.248     333.875    -405.136
  C     -534.713     331.514    -404.836
  O     -533.614     331.058    -405.654
  C     -534.187     331.539    -403.399
  O     -535.252     331.399    -402.459
  C     -533.305     330.307    -403.404
  O     -534.119     329.117    -403.308
  C     -532.655     330.384    -404.798
  N     -527.615     329.955    -405.222
  C     -528.583     328.974    -405.159
  N     -528.150     327.691    -405.204
  N     -529.869     329.218    -405.055
  C     -530.152     330.544    -404.990
  C     -529.278     331.610    -405.041
  C     -527.864     331.316    -405.175
  O     -526.968     332.158    -405.256
  N     -529.943     332.812    -404.955
  C     -531.214     332.468    -404.827
  N     -531.392     331.104    -404.845
  O     -534.107     334.514    -407.576
  O     -535.487     336.010    -406.032
  H     -533.518     328.376    -403.085
  H     -534.608     335.054    -408.215
  H     -526.636     329.717    -405.301
  H     -532.029     333.164    -404.733
  H     -532.468     329.393    -405.226
  H     -532.604     330.280    -402.565
  H     -527.173     327.429    -405.259
  H     -533.578     332.432    -403.199
  H     -528.838     326.957    -405.151
  H     -535.528     330.777    -404.937
  H     -535.461     332.792    -406.403
  H     -536.143     333.145    -404.784
  P     -535.155     332.238    -401.093
  C     -533.977     331.883    -398.810
  O     -534.027     331.542    -400.182
  O     -536.524     331.857    -400.350
  O     -535.024     333.722    -401.252
  H     -537.120     332.635    -400.320
  H     -533.182     331.345    -398.338
  H     -534.906     331.628    -398.345
  H     -533.805     332.934    -398.710

 6  7  8  9  10  11  12  13  14  15  26  29  33  34 0
 6-311+G(2d,p)
 ****
 36  38  39  40  41 0
 6-311+G(2d,p)
 ****
 1  2  3  4  5  16  17  18  19  20  21  22  23  24  25 0
 3-21G
 ****
 27  28  30  31  32  35  37  42  43  44  45  46  47 0
 3-21G
 ****
 48  49 0
 3-21G
 ****


