%nproc=1
%NoSave
%Mem=1900MB
#P OB98/GEN NMR

erre ene a

0 1
  C     -439.194    -218.338    -897.660
  O     -439.037    -219.596    -897.040
  H     -440.029    -218.398    -898.360
  H     -438.287    -218.092    -898.230
  H     -439.403    -217.554    -896.940
  P     -438.146    -219.641    -895.710
  C     -435.966    -220.650    -896.680
  O     -437.122    -220.866    -895.880
  C     -434.950    -221.785    -896.450
  O     -434.382    -221.633    -895.100
  C     -435.548    -223.196    -896.560
  O     -434.570    -224.069    -897.160
  C     -435.703    -223.609    -895.100
  O     -435.729    -225.020    -894.930
  C     -434.484    -222.922    -894.480
  N     -432.466    -224.466    -890.150
  C     -431.996    -224.578    -891.430
  N     -430.845    -225.252    -891.620
  N     -432.610    -224.057    -892.470
  C     -433.756    -223.397    -892.140
  C     -434.319    -223.214    -890.910
  C     -433.633    -223.800    -889.770
  O     -434.015    -223.759    -888.610
  N     -435.498    -222.530    -890.990
  C     -435.659    -222.315    -892.300
  N     -434.625    -222.824    -893.020
  O     -439.184    -220.176    -894.600
  O     -437.528    -218.343    -895.310
  H     -436.510    -225.376    -895.420
  H     -439.580    -219.421    -894.140
  H     -431.956    -224.890    -889.380
  H     -436.524    -221.818    -892.750
  H     -433.545    -223.485    -894.670
  H     -436.632    -223.185    -894.700
  H     -430.287    -225.648    -890.880
  H     -436.466    -223.253    -897.120
  H     -430.476    -225.306    -892.550
  H     -434.111    -221.643    -897.160
  H     -435.506    -219.699    -896.400
  H     -436.250    -220.617    -897.730
  P     -434.653    -224.320    -898.740
  C     -436.986    -225.482    -898.630
  O     -435.613    -225.586    -898.990
  O     -433.197    -224.894    -899.110
  O     -434.974    -223.086    -899.520
  H     -432.942    -224.584    -900.000
  H     -437.485    -226.401    -898.858
  H     -437.439    -224.684    -899.180
  H     -437.066    -225.283    -897.582

 6  7  8  9  10  11  12  13  14  15  26  29  33  34 0
 6-311+G(2d,p)
 ****
 36  38  39  40  41 0
 6-311+G(2d,p)
 ****
 1  2  3  4  5  16  17  18  19  20  21  22  23  24  25 0
 3-21G
 ****
 27  28  30  31  32  35  37  42  43  44  45  46  47 0
 3-21G
 ****
 48  49 0
 3-21G
 ****


