%nproc=1
%NoSave
%Mem=1900MB
#P OB98/GEN NMR

erre ene a

0 1
  C        7.797     697.298    -469.218
  O        8.780     696.289    -469.147
  H        7.130     697.193    -468.359
  H        7.204     697.189    -470.130
  H        8.257     698.287    -469.187
  P        9.877     696.175    -470.313
  C       11.820     696.783    -468.749
  O       11.060     697.183    -469.879
  C       12.951     697.772    -468.468
  O       13.793     697.900    -469.648
  C       12.462     699.183    -468.100
  O       13.166     699.656    -466.951
  C       12.841     700.019    -469.313
  O       12.996     701.403    -469.008
  C       14.108     699.296    -469.780
  N       14.479     699.659    -471.139
  C       14.782     701.005    -471.359
  O       14.739     701.811    -470.425
  N       15.079     701.418    -472.629
  C       15.025     700.571    -473.613
  N       15.301     701.052    -474.854
  C       14.681     699.146    -473.432
  C       14.427     698.763    -472.180
  O        9.345     696.383    -471.691
  O       10.549     694.737    -470.107
  H       13.238     701.879    -469.833
  H       10.957     694.452    -470.957
  H       14.646     698.478    -474.278
  H       14.163     697.735    -471.948
  H       14.955     699.520    -469.115
  H       12.061     699.929    -470.076
  H       11.392     699.225    -467.904
  H       13.590     697.356    -467.679
  H       15.525     702.039    -474.930
  H       12.228     695.784    -468.935
  H       15.268     700.494    -475.693
  H       11.155     696.745    -467.879
  P       12.437     700.802    -466.096
  C       11.634     699.069    -464.338
  O       11.272     700.112    -465.232
  O       11.648     701.648    -467.206
  O       13.383     701.660    -465.321
  H       12.067     702.522    -467.308
  H       10.760     698.710    -463.836
  H       12.331     699.443    -463.617
  H       12.084     698.269    -464.887

 6  7  8  9  10  11  12  13  14  15  16  26  30  31  32  33  35 0
 6-311+G(2d,p)
 ****
 37  38 0
 6-311+G(2d,p)
 ****
 1  2  3  4  5  17  18  19  20  21  22  23  24  25 0
 3-21G
 ****
 27  28  29  34  36  39  40  41  42  43  44  45  46 0
 3-21G
 ****


