%nproc=1
%NoSave
%Mem=1900MB
#P OB98/GEN NMR

erre ene a

0 1
  C     -300.669    -204.455     469.152
  O     -301.884    -205.166     469.026
  H     -300.498    -203.892     468.236
  H     -299.831    -205.145     469.301
  H     -300.727    -203.750     469.987
  P     -302.338    -206.135     470.222
  C     -303.582    -207.706     468.591
  O     -303.678    -206.868     469.739
  C     -304.885    -207.664     467.790
  O     -305.920    -208.273     468.601
  C     -305.322    -206.228     467.452
  O     -305.578    -206.028     466.062
  C     -306.473    -205.974     468.430
  O     -307.418    -205.012     467.989
  C     -307.051    -207.377     468.658
  N     -307.762    -207.523     469.917
  C     -309.156    -207.486     469.878
  O     -309.831    -207.350     468.858
  N     -309.786    -207.610     471.090
  C     -309.182    -207.763     472.306
  O     -309.804    -207.872     473.350
  C     -307.707    -207.775     472.284
  C     -307.078    -207.659     471.119
  O     -302.424    -205.498     471.574
  O     -301.254    -207.317     470.201
  H     -307.824    -205.347     467.169
  H     -300.611    -207.183     470.921
  H     -310.796    -207.583     471.070
  H     -307.200    -207.885     473.233
  H     -305.996    -207.669     471.070
  H     -307.740    -207.649     467.853
  H     -306.051    -205.598     469.367
  H     -304.516    -205.508     467.664
  H     -304.764    -208.271     466.889
  H     -303.376    -208.725     468.937
  H     -302.747    -207.363     467.958
  P     -305.159    -204.728     465.232
  C     -307.459    -204.095     464.147
  O     -306.146    -204.599     463.976
  O     -303.697    -204.579     464.972
  O     -305.613    -203.514     466.204
  H     -304.972    -202.793     466.057
  H     -307.963    -204.084     463.203
  H     -307.411    -203.100     464.537
  H     -307.995    -204.721     464.830

 6  7  8  9  10  11  12  13  14  15  16  26  31  32  33  34  35 0
 6-311+G(2d,p)
 ****
 36  37 0
 6-311+G(2d,p)
 ****
 1  2  3  4  5  17  18  19  20  21  22  23  24  25 0
 3-21G
 ****
 27  28  29  30  38  39  40  41  42  43  44  45 0
 3-21G
 ****


