%nproc=1
%NoSave
%Mem=1900MB
#P OB98/GEN NMR

erre ene a

0 1
  C     -812.347    -698.332    -707.487
  O     -812.912    -697.984    -706.243
  P     -814.212    -698.758    -705.689
  C     -816.632    -699.181    -706.418
  O     -815.422    -698.475    -706.692
  C     -817.762    -698.183    -706.139
  O     -817.853    -697.192    -707.209
  C     -819.140    -698.820    -706.069
  O     -819.334    -699.528    -704.866
  C     -820.027    -697.592    -706.188
  O     -820.146    -696.901    -704.944
  C     -819.232    -696.744    -707.191
  N     -819.783    -696.772    -708.548
  C     -820.826    -695.886    -708.831
  O     -821.276    -695.162    -707.930
  N     -821.326    -695.841    -710.098
  C     -820.935    -696.678    -711.001
  N     -821.411    -696.525    -712.251
  C     -819.940    -697.729    -710.699
  C     -819.411    -697.720    -709.480
  O     -814.528    -698.529    -704.253
  O     -813.864    -700.302    -705.958
  H     -814.055    -700.806    -705.131
  H     -820.699    -696.112    -705.115
  H     -819.696    -698.462    -711.461
  H     -818.658    -698.454    -709.184
  H     -819.188    -695.676    -706.867
  H     -821.033    -697.845    -706.523
  H     -819.293    -699.465    -706.929
  H     -817.552    -697.646    -705.184
  H     -822.064    -695.785    -712.405
  H     -816.467    -699.790    -705.544
  H     -820.954    -696.911    -713.066
  H     -816.876    -699.812    -707.272
  P     -820.716    -700.362    -704.742
  C     -823.236    -699.730    -704.837
  O     -821.898    -699.270    -704.756
  O     -820.716    -700.864    -703.217
  O     -820.869    -701.503    -705.687
  H     -821.120    -701.731    -703.144
  H     -823.899    -698.918    -704.507
  H     -823.383    -700.606    -704.183
  H     -823.488    -699.986    -705.891
  H     -811.498    -697.710    -707.679
  H     -813.073    -698.192    -708.260
  H     -812.041    -699.357    -707.466

 3  4  5  6  7  8  9  10  11  12  13  24  27  28  29  30  32 0
 6-311+G(2d,p)
 ****
 34  35 0
 6-311+G(2d,p)
 ****
 1  2  14  15  16  17  18  19  20  21  22  23  25  26 0
 3-21G
 ****
 31  33  36  37  38  39  40  41  42  43  44  45  46 0
 3-21G
 ****


