%nproc=1
%NoSave
%Mem=1900MB
#P OB98/GEN NMR

erre ene a

0 1
  C     -109.096    -535.380     182.111
  O     -108.388    -535.008     183.282
  H     -108.372    -535.645     181.338
  H     -109.701    -534.542     181.760
  H     -109.734    -536.242     182.311
  P     -109.287    -534.594     184.548
  C     -108.845    -532.041     184.260
  O     -109.794    -533.097     184.267
  C     -109.545    -530.695     184.008
  O     -110.433    -530.415     185.138
  C     -108.579    -529.500     183.894
  O     -109.192    -528.523     183.035
  C     -108.556    -528.988     185.328
  O     -107.982    -527.696     185.390
  C     -110.031    -529.133     185.668
  N     -111.570    -526.133     189.526
  C     -111.462    -525.912     188.196
  N     -111.062    -526.763     187.224
  C     -110.761    -527.964     187.750
  C     -110.828    -528.347     189.083
  C     -111.248    -527.359     190.002
  N     -111.346    -527.591     191.351
  N     -110.431    -529.668     189.227
  C     -110.132    -530.071     188.014
  N     -110.314    -529.079     187.089
  O     -108.209    -534.419     185.723
  O     -110.356    -535.567     184.924
  H     -107.811    -527.444     186.320
  H     -108.145    -535.245     186.240
  H     -111.742    -524.906     187.862
  H     -109.792    -531.059     187.743
  H     -110.646    -528.366     185.182
  H     -107.941    -529.634     185.958
  H     -107.600    -529.775     183.493
  H     -110.182    -530.786     183.124
  H     -108.118    -532.233     183.460
  H     -108.324    -532.002     185.227
  H     -111.639    -526.826     191.941
  H     -111.094    -528.500     191.720
  P     -108.863    -528.538     181.464
  C     -106.936    -526.778     181.616
  O     -107.337    -528.094     181.248
  O     -109.663    -527.253     180.939
  O     -109.290    -529.766     180.718
  H     -109.911    -527.385     180.014
  H     -105.894    -526.651     181.406
  H     -107.110    -526.631     182.662
  H     -107.502    -526.063     181.057

 6  7  8  9  10  11  12  13  14  15  25  28  32  33  34  35 0
 6-311+G(2d,p)
 ****
 36  37  40 0
 6-311+G(2d,p)
 ****
 1  2  3  4  5  16  17  18  19  20  21  22  23  24 0
 3-21G
 ****
 26  27  29  30  31  38  39 41  42  43  44  45  46  47  48 0
 3-21G
 ****


