%nproc=1
%NoSave
%Mem=1900MB
#P OB98/GEN NMR

erre ene a

0 1
  C      -62.065      60.108      78.715
  O      -63.472      60.359      78.826
  P      -64.463      59.410      79.654
  C      -66.075      61.424      79.650
  O      -65.948      60.007      79.585
  C      -67.536      61.868      79.524
  O      -68.015      61.658      78.183
  C      -68.511      61.120      80.424
  O      -68.415      61.566      81.765
  C      -69.838      61.430      79.740
  O      -70.335      62.720      80.136
  C      -69.436      61.432      78.251
  N      -69.816      60.201      77.569
  C      -71.111      60.150      77.046
  O      -71.891      61.087      77.219
  N      -71.498      59.024      76.361
  C      -70.691      58.014      76.272
  N      -71.126      56.930      75.575
  C      -69.351      57.993      76.887
  C      -68.983      59.109      77.511
  O      -63.994      59.105      81.041
  O      -64.564      58.063      78.793
  H      -71.147      62.875      79.615
  H      -64.710      57.310      79.396
  H      -68.721      57.120      76.814
  H      -68.010      59.182      77.983
  H      -69.903      62.278      77.731
  H      -70.615      60.699      79.980
  H      -68.316      60.043      80.367
  H      -67.576      62.946      79.730
  H      -72.048      56.979      75.160
  H      -65.494      61.858      78.829
  H      -70.577      56.093      75.445
  H      -65.654      61.772      80.599
  P      -67.341      60.903      82.749
  C      -67.672      62.879      84.353
  O      -67.617      61.471      84.220
  O      -65.921      60.972      82.297
  O      -67.828      59.379      82.866
  H      -67.048      58.808      82.997
  H      -68.242      63.125      85.253
  H      -68.157      63.338      83.487
  H      -66.658      63.273      84.455
  H      -61.613      60.871      78.117
  H      -61.908      59.155      78.255
  H      -61.624      60.111      79.690

 3  4  5  6  7  8  9  10  11  12  13  23  27  28  29  30  32 0
 6-311+G(2d,p)
 ****
 34  35 0
 6-311+G(2d,p)
 ****
 1  2  14  15  16  17  18  19  20  21  22  24  25  26 0
 3-21G
 ****
 31  33  36  37  38  39  40  41  42  43  44  45  46 0
 3-21G
 ****


