%nproc=1
%NoSave
%Mem=1900MB
#P OB98/GEN NMR

erre ene a

0 1
  C        4.357     265.773      48.661
  O        4.413     264.384      49.032
  P        5.136     263.972      50.406
  C        7.380     262.881      49.641
  O        6.729     263.998      50.230
  C        8.910     263.029      49.706
  O        9.547     261.765      49.347
  C        9.487     264.102      48.775
  O       10.640     264.654      49.431
  C        9.910     263.294      47.561
  O       10.862     263.961      46.747
  C       10.447     262.035      48.250
  N       10.558     260.871      47.368
  C       11.260     261.020      46.173
  O       11.738     262.080      45.782
  N       11.371     259.888      45.406
  C       10.836     258.665      45.686
  O       10.948     257.700      44.939
  C       10.083     258.573      46.945
  C        9.982     259.661      47.712
  O        4.829     262.403      50.487
  O        4.623     264.663      51.630
  H       11.127     263.347      46.037
  H        4.532     262.168      51.389
  H       11.889     259.974      44.546
  H        9.643     257.619      47.207
  H        9.442     259.613      48.656
  H       11.430     262.247      48.688
  H        9.032     263.081      46.942
  H        8.767     264.896      48.539
  H        9.185     263.235      50.748
  H        7.075     262.798      48.593
  H        7.066     261.969      50.162
  P       10.588     266.188      49.904
  C       11.355     267.343      47.688
  O       10.317     267.080      48.604
  O       12.142     266.443      50.212
  O        9.704     266.442      51.086
  H       12.722     266.100      49.512
  H       11.971     266.453      47.518
  H       11.984     268.156      48.065
  H       10.917     267.650      46.734
  H        3.846     265.872      47.726
  H        5.351     266.157      48.566
  H        3.833     266.323      49.415

 3  4  5  6  7  8  9  10  11  12  13  23  28  29  30  31  32 0
 6-311+G(2d,p)
 ****
 33  34 0
 6-311+G(2d,p)
 ****
 1  2  14  15  16  17  18  19  20  21  22  24  25  26 0
 3-21G
 ****
 27  35  36  37  38  39  40  41  42  43  44  45 0
 3-21G
 ****


