%nproc=1
%NoSave
%Mem=1900MB
#P OB98/GEN NMR

erre ene a

0 1
  C      515.156     287.113     245.774
  O      513.845     287.643     245.804
  H      515.784     287.766     245.159
  H      515.152     286.111     245.335
  H      515.569     287.078     246.786
  P      512.753     286.807     246.632
  C      513.339     287.540     249.033
  O      512.460     287.711     247.928
  C      512.904     288.423     250.202
  O      513.720     288.097     251.356
  C      513.067     289.921     249.930
  O      511.975     290.629     250.517
  C      514.353     290.280     250.654
  O      514.406     291.653     251.019
  C      514.321     289.308     251.836
  N      518.217     291.310     254.451
  C      516.967     291.753     254.214
  N      515.982     291.147     253.517
  C      516.385     289.938     253.083
  C      517.628     289.355     253.241
  C      518.581     290.099     253.958
  N      519.863     289.667     254.183
  N      517.669     288.127     252.612
  C      516.466     287.962     252.094
  N      515.659     289.046     252.342
  O      513.105     285.383     246.910
  O      511.438     287.030     245.749
  H      513.659     291.841     251.625
  H      511.349     287.960     245.466
  H      516.725     292.727     254.634
  H      516.138     287.101     251.529
  H      513.727     289.689     252.674
  H      515.211     290.068     250.004
  H      513.124     290.147     248.863
  H      511.869     288.175     250.467
  H      514.362     287.795     248.742
  H      520.482     290.256     254.719
  H      520.152     288.757     253.844
  H      513.312     286.483     249.323
  P      510.978     291.429     249.549
  C      508.981     289.858     249.071
  O      509.476     290.945     249.851
  O      511.359     291.477     248.108
  O      510.988     292.903     250.188
  H      510.950     293.559     249.462
  H      507.977     289.634     249.367
  H      509.599     288.998     249.225
  H      508.996     290.126     248.035

 6  7  8  9  10  11  12  13  14  15  25  28  32  33  34  35 0
 6-311+G(2d,p)
 ****
 36  39  40 0
 6-311+G(2d,p)
 ****
 1  2  3  4  5  16  17  18  19  20  21  22  23  24 0
 3-21G
 ****
 26  27  29  30  31  37  38  41  42  43  44  45  46  47 0
 3-21G
 ****
 48 0
 3-21G
 ****


