%nproc=1
%NoSave
%Mem=1900MB
#P OB98/GEN NMR

erre ene a

0 1
  C     -135.203       9.423     104.132
  O     -134.739      10.731     103.869
  P     -133.201      11.020     103.520
  C     -132.564      12.197     105.718
  O     -132.428      11.024     104.929
  C     -131.516      12.247     106.828
  O     -131.516      13.565     107.442
  C     -131.723      11.217     107.950
  O     -130.415      10.840     108.396
  C     -132.433      12.030     109.012
  O     -132.351      11.437     110.304
  C     -131.732      13.386     108.858
  N     -132.507      14.476     109.441
  C     -132.304      14.739     110.800
  O     -131.556      14.016     111.466
  N     -132.987      15.772     111.384
  C     -133.877      16.419     110.700
  N     -134.520      17.442     111.330
  C     -134.213      16.097     109.300
  C     -133.487      15.127     108.734
  O     -132.957      12.220     102.668
  O     -132.701       9.653     102.856
  H     -132.741      12.060     110.956
  H     -133.018       9.585     101.920
  H     -135.002      16.622     108.785
  H     -133.662      14.822     107.713
  H     -130.744      13.365     109.339
  H     -133.497      12.124     108.757
  H     -132.293      10.337     107.637
  H     -130.528      12.104     106.368
  H     -134.247      17.639     112.284
  H     -133.559      12.184     106.173
  H     -135.167      18.059     110.864
  H     -132.500      13.086     105.082
  P     -130.207       9.676     109.479
  C     -129.424      11.308     111.287
  O     -130.390      10.340     110.923
  O     -128.960       8.870     109.309
  O     -131.516       8.760     109.331
  H     -131.358       7.897     109.760
  H     -129.798      11.882     112.139
  H     -129.223      11.996     110.457
  H     -128.494      10.808     111.573
  H     -136.252       9.452     104.341
  H     -134.682       9.023     104.977
  H     -135.026       8.803     103.278

 3  4  5  6  7  8  9  10  11  12  13  23  27  28  29  30  32 0
 6-311+G(2d,p)
 ****
 34  35 0
 6-311+G(2d,p)
 ****
 1  2  14  15  16  17  18  19  20  21  22  24  25  26 0
 3-21G
 ****
 31  33  36  37  38  39  40  41  42  43  44  45  46 0
 3-21G
 ****


