%nproc=1
%NoSave
%Mem=1900MB
#P OB98/GEN NMR

erre ene a

0 1
  C      242.782    -197.363     185.094
  O      244.112    -197.313     184.622
  P      245.346    -196.846     185.521
  C      246.052    -194.564     186.545
  O      245.438    -195.239     185.456
  C      245.734    -193.060     186.578
  O      244.323    -192.874     186.819
  C      246.464    -192.390     187.748
  O      247.811    -191.986     187.606
  C      245.515    -191.303     188.234
  O      245.843    -190.013     187.716
  C      244.149    -191.758     187.703
  N      242.171    -190.580     192.222
  C      242.902    -189.787     191.357
  N      243.308    -188.594     191.851
  N      243.218    -190.142     190.139
  C      242.822    -191.401     189.823
  C      242.084    -192.273     190.591
  C      241.707    -191.851     191.922
  O      241.135    -192.562     192.748
  N      241.933    -193.491     189.975
  C      242.611    -193.369     188.854
  N      243.203    -192.130     188.736
  O      246.607    -197.639     185.400
  O      244.764    -197.092     187.008
  H      245.176    -189.378     188.045
  H      245.512    -197.366     187.575
  H      242.026    -190.287     193.182
  H      242.736    -194.150     188.110
  H      243.679    -190.959     187.113
  H      245.550    -191.217     189.326
  H      243.210    -188.354     192.825
  H      246.492    -193.124     188.564
  H      243.982    -188.066     191.309
  H      245.933    -192.596     185.609
  H      247.133    -194.727     186.465
  H      245.729    -195.018     187.488
  P      248.906    -191.914     188.770
  C      248.728    -191.255     191.236
  O      248.371    -190.919     189.908
  O      250.120    -191.094     188.120
  O      249.382    -193.241     189.269
  H      250.948    -191.290     188.601
  H      248.081    -190.707     191.927
  H      249.766    -190.965     191.422
  H      248.611    -192.330     191.413
  H      242.138    -197.705     184.311
  H      242.477    -196.386     185.405
  H      242.723    -198.036     185.924

 3  4  5  6  7  8  9  10  11  12  23  26  30  31 0
 6-311+G(2d,p)
 ****
 33  35  36  37  38 0
 6-311+G(2d,p)
 ****
 1  2  13  14  15  16  17  18  19  20  21  22  24  25 0
 3-21G
 ****
 27  28  29  32  34  39  40  41  42  43  44  45  46  47  48  49 0
 3-21G
 ****


