%nproc=1
%NoSave
%Mem=1900MB
#P OB98/GEN NMR

erre ene a

0 1
  C     -268.617    -555.810     -34.935
  O     -268.287    -556.286     -33.646
  H     -269.703    -555.679     -34.990
  H     -268.316    -556.540     -35.690
  H     -268.136    -554.848     -35.130
  P     -266.742    -556.436     -33.244
  C     -266.304    -558.688     -34.432
  O     -266.027    -557.293     -34.401
  C     -265.244    -559.434     -35.249
  O     -265.295    -558.956     -36.623
  C     -263.817    -559.235     -34.731
  O     -263.090    -560.457     -34.884
  C     -263.250    -558.178     -35.666
  O     -261.828    -558.253     -35.767
  C     -263.971    -558.492     -36.975
  N     -262.055    -556.275     -41.098
  C     -261.797    -557.520     -40.546
  N     -260.873    -558.284     -41.185
  N     -262.385    -557.974     -39.472
  C     -263.297    -557.118     -38.954
  C     -263.650    -555.862     -39.406
  C     -262.966    -555.361     -40.586
  O     -263.147    -554.261     -41.108
  N     -264.601    -555.290     -38.602
  C     -264.832    -556.199     -37.669
  N     -264.057    -557.321     -37.833
  O     -266.495    -556.943     -31.857
  O     -266.138    -554.973     -33.448
  H     -261.461    -558.044     -34.884
  H     -265.984    -554.531     -32.594
  H     -261.566    -555.976     -41.921
  H     -265.542    -556.096     -36.858
  H     -263.470    -559.276     -37.552
  H     -263.514    -557.183     -35.298
  H     -260.403    -558.001     -42.029
  H     -263.796    -558.925     -33.688
  H     -260.692    -559.211     -40.815
  H     -265.514    -560.499     -35.273
  H     -267.296    -558.830     -34.894
  H     -266.336    -559.073     -33.406
  P     -262.796    -561.355     -33.589
  C     -260.403    -560.441     -33.339
  O     -261.659    -560.637     -32.703
  O     -262.570    -562.805     -33.847
  O     -264.116    -561.141     -32.698
  H     -264.319    -561.968     -32.216
  H     -259.731    -559.959     -32.660
  H     -260.534    -559.828     -34.206
  H     -259.999    -561.388     -33.629

 6  7  8  9  10  11  12  13  14  15  26  29  33  34 0
 6-311+G(2d,p)
 ****
 36  38  39  40  41 0
 6-311+G(2d,p)
 ****
 1  2  3  4  5  16  17  18  19  20  21  22  23  24  25 0
 3-21G
 ****
 27  28  30  31  32  35  37  42  43  44  45  46  47 0
 3-21G
 ****
 48  49 0
 3-21G
 ****


