%nproc=1
%NoSave
%Mem=1900MB
#P OB98/GEN NMR

erre ene a

0 1
  C       24.883      -3.950     -64.094
  O       24.074      -3.322     -63.119
  H       24.540      -4.980     -64.226
  H       25.927      -3.965     -63.769
  H       24.797      -3.423     -65.047
  P       24.474      -1.828     -62.696
  C       26.726      -0.685     -62.076
  O       25.972      -1.890     -62.128
  C       28.018      -0.924     -61.301
  O       27.708      -1.303     -59.938
  C       28.872      -2.057     -61.852
  O       29.626      -1.673     -62.989
  C       29.752      -2.364     -60.652
  O       30.890      -1.494     -60.591
  C       28.800      -2.119     -59.465
  N       28.333      -3.374     -58.879
  C       28.385      -3.445     -57.490
  O       28.789      -2.525     -56.780
  N       27.987      -4.633     -56.937
  C       27.605      -5.747     -57.627
  O       27.315      -6.799     -57.070
  C       27.586      -5.619     -59.093
  C       27.951      -4.457     -59.645
  O       23.582      -1.566     -61.393
  O       24.246      -0.794     -63.748
  H       22.851      -0.959     -61.611
  H       31.339      -1.695     -59.747
  H       28.014      -4.704     -55.933
  H       27.288      -6.485     -59.671
  H       27.956      -4.342     -60.724
  H       29.305      -1.543     -58.681
  H       30.128      -3.384     -60.694
  H       28.247      -2.933     -62.069
  H       28.590       0.014     -61.278
  H       26.145       0.091     -61.568
  H       26.937      -0.353     -63.099
  P       29.546      -2.610     -64.291
  C       30.518      -4.987     -64.868
  O       30.366      -3.938     -63.924
  O       30.500      -1.804     -65.291
  O       28.152      -2.822     -64.775
  H       31.170      -1.285     -64.813
  H       31.093      -5.778     -64.433
  H       31.021      -4.616     -65.736
  H       29.554      -5.359     -65.146

 6  7  8  9  10  11  12  13  14  15  16  27  31  32  33  34  35 0
 6-311+G(2d,p)
 ****
 36  37 0
 6-311+G(2d,p)
 ****
 1  2  3  4  5  17  18  19  20  21  22  23  24  25 0
 3-21G
 ****
 26  28  29  30  38  39  40  41  42  43  44  45 0
 3-21G
 ****


