%nproc=1
%NoSave
%Mem=1900MB
#P OB98/GEN NMR

erre ene a

0 1
  C     -157.695     249.101     133.686
  O     -157.539     247.768     134.124
  H     -158.056     249.705     134.520
  H     -158.430     249.147     132.878
  H     -156.741     249.513     133.343
  P     -156.847     246.708     133.143
  C     -154.274     246.908     133.069
  O     -155.401     246.386     133.757
  C     -153.100     245.922     133.124
  O     -152.100     246.337     132.144
  C     -152.392     245.855     134.492
  O     -151.873     244.524     134.632
  C     -151.277     246.866     134.286
  O     -150.304     246.812     135.298
  C     -150.855     246.486     132.860
  N     -149.985     247.442     132.189
  C     -148.626     247.145     132.120
  O     -148.110     246.129     132.583
  N     -147.847     248.076     131.489
  C     -148.280     249.238     130.920
  O     -147.538     250.019     130.338
  C     -149.722     249.501     131.030
  C     -150.497     248.604     131.644
  O     -156.854     247.061     131.694
  O     -157.656     245.353     133.422
  H     -158.299     245.203     132.704
  H     -150.751     246.770     136.170
  H     -146.861     247.876     131.426
  H     -150.099     250.418     130.600
  H     -151.567     248.765     131.733
  H     -150.369     245.503     132.866
  H     -151.684     247.880     134.315
  H     -153.056     246.078     135.331
  H     -153.456     244.932     132.814
  H     -153.986     247.849     133.550
  H     -154.548     247.109     132.029
  P     -152.317     243.521     135.802
  C     -153.444     241.788     134.246
  O     -152.405     242.042     135.184
  O     -153.551     243.944     136.527
  O     -151.062     243.449     136.795
  H     -151.371     243.223     137.692
  H     -153.387     240.771     133.917
  H     -153.334     242.442     133.406
  H     -154.393     241.960     134.710

 6  7  8  9  10  11  12  13  14  15  16  27  31  32  33  34  35 0
 6-311+G(2d,p)
 ****
 36  37 0
 6-311+G(2d,p)
 ****
 1  2  3  4  5  17  18  19  20  21  22  23  24  25 0
 3-21G
 ****
 26  28  29  30  38  39  40  41  42  43  44  45 0
 3-21G
 ****


