%nproc=1
%NoSave
%Mem=1900MB
#P OB98/GEN NMR

erre ene a

0 1
  C     -898.600    -522.686    1874.605
  O     -898.160    -522.559    1873.271
  H     -898.480    -523.727    1874.920
  H     -899.660    -522.418    1874.675
  H     -898.010    -522.043    1875.270
  P     -898.170    -521.083    1872.643
  C     -895.640    -521.018    1872.072
  O     -896.690    -520.486    1872.862
  C     -894.410    -521.307    1872.920
  O     -894.700    -522.438    1873.807
  C     -893.140    -521.671    1872.122
  O     -892.010    -521.131    1872.816
  C     -893.100    -523.182    1872.220
  O     -891.800    -523.701    1871.998
  C     -893.610    -523.376    1873.652
  N     -892.290    -527.702    1875.847
  C     -891.650    -526.481    1875.823
  N     -890.480    -526.400    1876.481
  N     -892.130    -525.426    1875.202
  C     -893.330    -525.655    1874.615
  C     -894.060    -526.806    1874.566
  C     -893.500    -527.981    1875.226
  O     -894.020    -529.086    1875.280
  N     -895.210    -526.642    1873.838
  C     -895.180    -525.378    1873.449
  N     -894.050    -524.732    1873.900
  O     -899.070    -520.263    1873.681
  O     -898.700    -520.981    1871.253
  H     -891.150    -523.146    1872.495
  H     -900.000    -520.252    1873.395
  H     -891.890    -528.480    1876.336
  H     -895.930    -524.882    1872.862
  H     -892.850    -523.140    1874.403
  H     -893.790    -523.636    1871.493
  H     -890.080    -527.135    1877.019
  H     -893.150    -521.306    1871.088
  H     -890.020    -525.490    1876.513
  H     -894.230    -520.437    1873.578
  H     -895.380    -520.287    1871.293
  H     -895.990    -521.949    1871.575
  P     -891.120    -520.034    1872.073
  C     -889.680    -518.928    1873.940
  O     -890.820    -518.842    1873.101
  O     -892.160    -519.371    1871.053
  O     -889.920    -520.596    1871.369
  H     -891.680    -519.037    1870.258
  H     -889.627    -518.058    1874.560
  H     -888.798    -518.991    1873.338
  H     -889.755    -519.800    1874.555

 6  7  8  9  10  11  12  13  14  15  26  29  33  34 0
 6-311+G(2d,p)
 ****
 36  38  39  40  41 0
 6-311+G(2d,p)
 ****
 1  2  3  4  5  16  17  18  19  20  21  22  23  24  25 0
 3-21G
 ****
 27  28  30  31  32  35  37  42  43  44  45  46  47 0
 3-21G
 ****
 48  49 0
 3-21G
 ****


