%nproc=1
%NoSave
%Mem=1900MB
#P OB98/GEN NMR

erre ene a

0 1
  C      167.459     -25.351     122.134
  O      167.627     -26.477     121.296
  H      167.043     -25.685     123.088
  H      166.769     -24.635     121.678
  H      168.425     -24.872     122.315
  P      168.124     -26.183     119.795
  C      169.518     -28.357     120.166
  O      168.679     -27.608     119.298
  C      169.673     -29.781     119.642
  O      168.457     -30.534     119.858
  C      169.947     -29.878     118.144
  O      171.291     -29.589     117.799
  C      169.608     -31.341     117.913
  O      170.665     -32.169     118.428
  C      168.327     -31.482     118.760
  N      167.103     -31.217     117.995
  C      166.759     -32.155     117.015
  O      167.461     -33.145     116.819
  N      165.639     -31.932     116.251
  C      164.911     -30.879     116.460
  N      163.814     -30.711     115.668
  C      165.226     -29.872     117.487
  C      166.322     -30.101     118.211
  O      169.467     -25.339     120.009
  O      167.128     -25.545     118.886
  H      171.326     -32.256     117.714
  H      169.937     -25.229     119.147
  H      164.597     -29.004     117.617
  H      166.617     -29.404     118.990
  H      168.251     -32.485     119.199
  H      169.489     -31.596     116.860
  H      169.252     -29.259     117.565
  H      170.466     -30.267     120.225
  H      163.659     -31.388     114.933
  H      169.062     -28.367     121.163
  H      163.275     -29.854     115.652
  H      170.505     -27.887     120.234
  P      171.553     -28.886     116.381
  C      173.557     -27.375     117.068
  O      173.107     -28.503     116.326
  O      170.824     -27.472     116.532
  O      171.042     -29.653     115.198
  H      170.442     -27.182     115.682
  H      174.611     -27.253     116.928
  H      173.350     -27.526     118.107
  H      173.048     -26.498     116.727

 6  7  8  9  10  11  12  13  14  15  16  26  30  31  32  33  35 0
 6-311+G(2d,p)
 ****
 37  38 0
 6-311+G(2d,p)
 ****
 1  2  3  4  5  17  18  19  20  21  22  23  24  25 0
 3-21G
 ****
 27  28  29  34  36  39  40  41  42  43  44  45  46 0
 3-21G
 ****


