%nproc=1
%NoSave
%Mem=1900MB
#P OB98/GEN NMR

erre ene a

0 1
  C     -587.922     174.385     334.295
  O     -587.555     174.121     332.951
  P     -586.387     175.004     332.298
  C     -584.631     173.802     333.797
  O     -585.175     175.047     333.355
  C     -583.129     173.743     333.527
  O     -582.473     174.872     334.180
  C     -582.441     172.457     334.035
  O     -581.379     172.161     333.128
  C     -581.849     172.901     335.369
  O     -580.793     172.055     335.799
  C     -581.435     174.326     335.026
  N     -578.311     175.637     338.860
  C     -578.153     174.789     337.822
  N     -579.033     174.507     336.829
  C     -580.169     175.180     337.000
  C     -580.492     176.054     338.033
  C     -579.495     176.285     338.998
  N     -579.653     177.148     340.053
  N     -581.781     176.547     337.882
  C     -582.228     175.972     336.778
  N     -581.280     175.167     336.207
  O     -586.990     176.485     332.357
  O     -586.009     174.617     330.908
  H     -581.137     171.154     335.862
  H     -587.183     176.799     331.442
  H     -577.190     174.283     337.755
  H     -583.203     176.113     336.350
  H     -580.499     174.367     334.464
  H     -582.632     172.900     336.146
  H     -583.107     171.599     334.131
  H     -582.964     173.851     332.445
  H     -585.118     172.998     333.241
  H     -578.843     177.364     340.620
  H     -580.452     177.787     340.058
  H     -584.842     173.668     334.861
  P     -581.070     170.609     332.852
  C     -582.775     170.641     330.900
  O     -582.359     170.017     332.107
  O     -581.155     169.951     334.331
  O     -579.749     170.337     332.212
  H     -580.583     169.149     334.368
  H     -583.197     169.871     330.230
  H     -581.937     171.137     330.381
  H     -583.554     171.369     331.125
  H     -588.708     173.721     334.587
  H     -588.260     175.397     334.380
  H     -587.075     174.237     334.932

 3  4  5  6  7  8  9  10  11  12  22  25  29  30  31  32 0
 6-311+G(2d,p)
 ****
 33  36  37 0
 6-311+G(2d,p)
 ****
 1  2  13  14  15  16  17  18  19  20  21  23  24  26 0
 3-21G
 ****
 27  28  34  35  38  39  40  41  42  43  44  45  46  47  48 0
 3-21G
 ****


