%nproc=1
%NoSave
%Mem=1900MB
#P OB98/GEN NMR

erre ene a

0 1
  C      467.552    -297.496      57.559
  O      468.417    -298.469      57.000
  H      467.659    -297.509      58.647
  H      466.515    -297.734      57.308
  H      467.809    -296.498      57.191
  P      468.499    -298.539      55.402
  C      471.103    -298.398      55.419
  O      469.948    -299.140      55.050
  C      472.361    -299.173      55.024
  O      472.404    -300.410      55.789
  C      472.405    -299.547      53.537
  O      473.757    -299.458      53.072
  C      471.947    -300.997      53.526
  O      472.391    -301.726      52.388
  C      472.553    -301.500      54.846
  N      471.895    -302.705      55.340
  C      471.863    -303.811      54.501
  O      472.413    -303.873      53.398
  N      471.157    -304.895      54.967
  C      470.475    -304.962      56.149
  O      469.840    -305.950      56.499
  C      470.540    -303.754      56.997
  C      471.235    -302.705      56.557
  O      468.626    -297.003      54.968
  O      467.363    -299.233      54.726
  H      467.744    -296.616      54.820
  H      473.345    -301.921      52.511
  H      471.129    -305.704      54.363
  H      470.000    -303.776      57.928
  H      471.281    -301.792      57.149
  H      473.624    -301.682      54.729
  H      470.857    -301.042      53.563
  H      471.763    -298.912      52.922
  H      473.239    -298.591      55.311
  H      471.096    -298.247      56.505
  H      471.082    -297.423      54.926
  P      474.164    -298.155      52.218
  C      476.274    -297.912      53.753
  O      475.745    -297.969      52.434
  O      473.500    -296.993      53.089
  O      473.707    -298.228      50.799
  H      473.545    -297.148      54.052
  H      477.336    -297.786      53.706
  H      476.045    -298.821      54.269
  H      475.840    -297.086      54.276

 6  7  8  9  10  11  12  13  14  15  16  27  31  32  33  34  35 0
 6-311+G(2d,p)
 ****
 36  37 0
 6-311+G(2d,p)
 ****
 1  2  3  4  5  17  18  19  20  21  22  23  24  25 0
 3-21G
 ****
 26  28  29  30  38  39  40  41  42  43  44  45 0
 3-21G
 ****


