%nproc=1
%NoSave
%Mem=1900MB
#P OB98/GEN NMR

erre ene a

0 1
  C      -50.897     -86.430     -26.237
  O      -51.499     -87.677     -26.526
  H      -50.662     -85.900     -27.166
  H      -51.602     -85.828     -25.658
  H      -49.987     -86.574     -25.648
  P      -50.609     -88.728     -27.351
  C      -52.245     -88.486     -29.352
  O      -50.898     -88.437     -28.903
  C      -52.296     -88.923     -30.813
  O      -53.640     -88.799     -31.323
  C      -51.423     -88.100     -31.755
  O      -50.060     -88.500     -31.697
  C      -52.048     -88.449     -33.098
  O      -51.582     -89.740     -33.531
  C      -53.544     -88.520     -32.745
  N      -55.941     -85.818     -36.370
  C      -55.390     -87.051     -36.380
  N      -54.786     -87.712     -35.370
  C      -54.801     -86.973     -34.247
  C      -55.345     -85.711     -34.075
  C      -55.934     -85.120     -35.205
  N      -56.433     -83.826     -35.200
  N      -55.152     -85.267     -32.781
  C      -54.488     -86.239     -32.189
  N      -54.260     -87.293     -33.031
  O      -51.358     -90.120     -27.076
  O      -49.169     -88.787     -26.961
  H      -50.628     -89.647     -33.712
  H      -50.905     -90.589     -26.351
  H      -55.432     -87.578     -37.329
  H      -54.152     -86.220     -31.161
  H      -54.052     -89.336     -33.268
  H      -51.800     -87.732     -33.887
  H      -51.536     -87.026     -31.574
  H      -52.021     -89.986     -30.858
  H      -52.698     -87.494     -29.256
  H      -56.386     -83.368     -36.107
  H      -56.160     -83.276     -34.395
  H      -52.797     -89.192     -28.725
  P      -48.942     -87.350     -31.716
  C      -47.662     -88.526     -33.633
  O      -48.320     -87.343     -33.198
  O      -47.775     -87.973     -30.816
  O      -49.382     -86.026     -31.193
  H      -47.564     -87.364     -30.082
  H      -47.298     -88.386     -34.629
  H      -48.351     -89.344     -33.617
  H      -46.841     -88.738     -32.980

 6  7  8  9  10  11  12  13  14  15  25  28  32  33  34  35 0
 6-311+G(2d,p)
 ****
 36  39  40 0
 6-311+G(2d,p)
 ****
 1  2  3  4  5  16  17  18  19  20  21  22  23  24 0
 3-21G
 ****
 26  27  29  30  31  37  38  41  42  43  44  45  46  47  48 0
 3-21G
 ****


