%nproc=1
%NoSave
%Mem=1900MB
#P OB98/GEN NMR

erre ene a

0 1
  C     -329.128    -266.210     449.350
  O     -330.542    -266.118     449.303
  H     -328.719    -265.791     448.428
  H     -328.827    -267.259     449.428
  H     -328.739    -265.644     450.201
  P     -331.325    -266.465     450.655
  C     -333.261    -264.988     449.674
  O     -332.883    -266.152     450.398
  C     -334.714    -265.108     449.213
  O     -334.813    -265.953     448.054
  C     -335.639    -265.766     450.227
  O     -335.921    -264.935     451.327
  C     -336.854    -266.055     449.353
  O     -337.713    -264.920     449.247
  C     -336.197    -266.378     447.980
  N     -336.330    -267.781     447.632
  C     -335.364    -268.273     446.739
  O     -334.473    -267.530     446.337
  N     -335.461    -269.570     446.321
  C     -336.446    -270.304     446.725
  N     -336.507    -271.579     446.236
  C     -337.489    -269.829     447.659
  C     -337.369    -268.563     448.064
  O     -330.872    -265.279     451.631
  O     -331.068    -267.832     451.193
  H     -337.126    -264.135     449.217
  H     -330.952    -264.395     451.238
  H     -338.290    -270.488     447.973
  H     -338.090    -268.136     448.753
  H     -336.664    -265.783     447.188
  H     -337.451    -266.874     449.756
  H     -335.211    -266.725     450.552
  H     -335.067    -264.100     448.945
  H     -335.799    -271.843     445.564
  H     -332.598    -264.833     448.811
  H     -337.265    -272.216     446.421
  H     -333.137    -264.126     450.340
  P     -335.077    -265.025     452.680
  C     -336.397    -263.206     453.958
  O     -336.066    -264.594     453.876
  O     -333.780    -264.284     452.669
  O     -334.929    -266.595     452.923
  H     -335.768    -267.074     453.014
  H     -337.055    -263.045     454.786
  H     -336.880    -262.901     453.054
  H     -335.503    -262.634     454.096

 6  7  8  9  10  11  12  13  14  15  16  26  30  31  32  33  35 0
 6-311+G(2d,p)
 ****
 37  38 0
 6-311+G(2d,p)
 ****
 1  2  3  4  5  17  18  19  20  21  22  23  24  25 0
 3-21G
 ****
 27  28  29  34  36  39  40  41  42  43  44  45  46 0
 3-21G
 ****


