%nproc=1
%NoSave
%Mem=1900MB
#P OB98/GEN NMR

erre ene a

0 1
  C      434.619    -675.577    -759.070
  O      435.503    -675.273    -758.009
  H      434.364    -676.642    -759.021
  H      435.096    -675.377    -760.033
  H      433.703    -674.987    -758.974
  P      436.048    -673.764    -757.937
  C      435.797    -673.748    -755.367
  O      436.698    -673.636    -756.464
  C      436.532    -673.481    -754.053
  O      437.397    -674.618    -753.767
  C      437.409    -672.219    -754.072
  O      437.377    -671.593    -752.788
  C      438.800    -672.775    -754.322
  O      439.819    -671.887    -753.880
  C      438.729    -674.100    -753.561
  N      443.725    -675.080    -753.756
  C      443.004    -674.166    -753.060
  N      441.671    -673.988    -753.056
  C      441.058    -674.919    -753.822
  C      441.659    -675.913    -754.583
  C      443.071    -675.963    -754.547
  N      443.814    -676.864    -755.273
  N      440.700    -676.637    -755.270
  C      439.548    -676.098    -754.917
  N      439.717    -675.048    -754.056
  O      435.060    -672.702    -758.285
  O      437.350    -673.838    -758.876
  H      440.690    -672.243    -754.158
  H      437.895    -674.615    -758.668
  H      443.585    -673.482    -752.447
  H      438.568    -676.420    -755.268
  H      438.901    -673.983    -752.481
  H      438.942    -672.949    -755.394
  H      437.113    -671.511    -754.841
  H      435.785    -673.432    -753.233
  H      435.347    -674.751    -755.338
  H      444.812    -676.838    -755.179
  H      443.340    -677.536    -755.864
  H      434.998    -673.010    -755.512
  P      437.553    -669.998    -752.696
  C      435.508    -669.665    -751.149
  O      436.911    -669.491    -751.313
  O      437.123    -669.236    -753.909
  O      439.130    -669.842    -752.427
  H      439.459    -669.087    -752.972
  H      435.211    -669.288    -750.192
  H      435.268    -670.706    -751.213
  H      434.990    -669.132    -751.919

 6  7  8  9  10  11  12  13  14  15  25  28  32  33  34  35 0
 6-311+G(2d,p)
 ****
 36  39  40 0
 6-311+G(2d,p)
 ****
 1  2  3  4  5  16  17  18  19  20  21  22  23  24 0
 3-21G
 ****
 26  27  29  30  31  37  38  41  42  43  44  45  46  47 0
 3-21G
 ****
 48 0
 3-21G
 ****


