%nproc=1
%NoSave
%Mem=1900MB
#P OB98/GEN NMR

erre ene a

0 1
  C      255.004    -442.177    -173.119
  O      253.877    -442.239    -172.240
  P      254.093    -441.989    -170.669
  C      254.007    -443.401    -168.521
  O      254.212    -443.406    -169.925
  C      254.166    -444.797    -167.896
  O      253.047    -445.650    -168.259
  C      255.452    -445.528    -168.304
  O      255.882    -446.281    -167.162
  C      254.967    -446.455    -169.403
  O      255.864    -447.525    -169.650
  C      253.588    -446.851    -168.840
  N      252.708    -447.404    -169.856
  C      252.638    -448.794    -169.947
  O      253.368    -449.504    -169.260
  N      251.746    -449.351    -170.836
  C      251.105    -448.583    -171.669
  N      250.228    -449.166    -172.526
  C      251.304    -447.119    -171.730
  C      252.091    -446.597    -170.784
  O      253.146    -441.023    -170.042
  O      255.602    -441.434    -170.607
  H      255.413    -448.200    -170.201
  H      255.663    -440.772    -169.893
  H      250.823    -446.526    -172.491
  H      252.290    -445.541    -170.732
  H      253.706    -447.591    -168.031
  H      254.845    -445.885    -170.334
  H      256.263    -444.858    -168.613
  H      254.140    -444.675    -166.800
  H      250.119    -450.174    -172.498
  H      253.008    -443.016    -168.303
  H      249.652    -448.622    -173.174
  H      254.708    -442.679    -168.064
  P      257.406    -446.154    -166.667
  C      259.657    -447.368    -167.163
  O      258.272    -447.257    -167.440
  O      257.326    -446.780    -165.190
  O      257.960    -444.758    -166.604
  H      258.055    -446.409    -164.648
  H      260.020    -448.325    -167.554
  H      259.841    -447.340    -166.085
  H      260.204    -446.552    -167.651
  H      254.684    -442.366    -174.123
  H      255.724    -442.914    -172.829
  H      255.447    -441.205    -173.063

 3  4  5  6  7  8  9  10  11  12  13  23  27  28  29  30  32 0
 6-311+G(2d,p)
 ****
 34  35 0
 6-311+G(2d,p)
 ****
 1  2  14  15  16  17  18  19  20  21  22  24  25  26 0
 3-21G
 ****
 31  33  36  37  38  39  40  41  42  43  44  45  46 0
 3-21G
 ****


