%nproc=1
%NoSave
%Mem=1900MB
#P OB98/GEN NMR

erre ene a

0 1
  C       -3.343     -20.972      54.064
  O       -3.373     -22.394      54.175
  P       -2.398     -23.253      53.236
  C       -2.292     -24.028      50.777
  O       -3.034     -23.320      51.764
  C       -3.209     -24.978      49.989
  O       -3.714     -25.999      50.892
  C       -4.449     -24.318      49.375
  O       -4.342     -23.766      48.066
  C       -5.399     -25.509      49.270
  O       -5.117     -26.252      48.068
  C       -5.052     -26.357      50.489
  N       -9.982     -26.050      51.823
  C       -9.380     -26.262      50.633
  N       -8.060     -26.328      50.363
  C       -7.336     -26.165      51.480
  C       -7.810     -25.945      52.763
  C       -9.204     -25.885      52.918
  N       -9.818     -25.659      54.128
  N       -6.764     -25.817      53.653
  C       -5.679     -25.940      52.916
  N       -5.970     -26.165      51.599
  O       -1.935     -24.556      53.795
  O       -1.159     -22.256      53.022
  H       -5.684     -27.045      48.094
  H       -0.332     -22.776      53.012
  H      -10.046     -26.391      49.784
  H       -4.668     -25.872      53.291
  H       -5.048     -27.430      50.264
  H       -6.447     -25.202      49.208
  H       -4.869     -23.569      50.056
  H       -2.624     -25.475      49.206
  H       -1.496     -24.601      51.259
  H      -10.822     -25.586      54.145
  H       -9.252     -25.476      54.945
  H       -1.806     -23.290      50.139
  P       -4.522     -22.197      47.804
  C       -6.619     -20.635      47.755
  O       -6.066     -21.886      48.098
  O       -4.032     -21.716      46.483
  O       -3.779     -21.548      49.063
  H       -4.226     -21.695      49.913
  H       -7.708     -20.699      47.833
  H       -6.355     -20.360      46.731
  H       -6.261     -19.870      48.450
  H       -4.044     -20.546      54.750
  H       -3.602     -20.687      53.066
  H       -2.360     -20.617      54.292

 3  4  5  6  7  8  9  10  11  12  22  25  29  30  31  32 0
 6-311+G(2d,p)
 ****
 33  36  37 0
 6-311+G(2d,p)
 ****
 1  2  13  14  15  16  17  18  19  20  21  23  24  26 0
 3-21G
 ****
 27  28  34  35  38  39  40  41  42  43  44  45  46  47  48 0
 3-21G
 ****


