%nproc=1
%NoSave
%Mem=1900MB
#P OB98/GEN NMR

erre ene a

0 1
  C      269.940    -259.926     360.849
  O      268.727    -260.613     361.094
  H      269.804    -258.873     361.096
  H      270.213    -260.014     359.795
  H      270.741    -260.336     361.473
  P      268.737    -262.196     360.831
  C      268.024    -263.701     358.824
  O      268.013    -262.409     359.414
  C      268.158    -263.588     357.301
  O      267.057    -262.779     356.794
  C      269.460    -262.899     356.847
  O      269.835    -263.429     355.567
  C      269.008    -261.460     356.677
  O      269.942    -260.735     355.912
  C      267.643    -261.693     356.045
  N      264.825    -258.502     353.233
  C      265.493    -259.636     352.920
  N      266.215    -260.434     353.734
  C      266.186    -259.974     354.994
  C      265.550    -258.839     355.462
  C      264.849    -258.077     354.518
  N      264.187    -256.909     354.826
  N      265.771    -258.686     356.823
  C      266.521    -259.719     357.163
  N      266.790    -260.525     356.091
  O      267.670    -262.746     361.890
  O      270.058    -262.869     360.968
  H      269.646    -259.813     355.777
  H      268.120    -263.008     362.713
  H      265.443    -259.938     351.876
  H      266.898    -259.924     358.155
  H      267.712    -262.008     354.998
  H      268.917    -260.958     357.648
  H      270.285    -263.025     357.553
  H      268.056    -264.581     356.853
  H      267.086    -264.208     359.079
  H      268.866    -264.277     359.221
  H      263.730    -256.406     354.085
  H      264.222    -256.555     355.775
  P      271.342    -263.959     355.348
  C      273.565    -263.133     354.261
  O      272.230    -262.826     354.637
  O      271.153    -265.032     354.172
  O      271.968    -264.607     356.541
  H      271.641    -265.844     354.389
  H      274.013    -262.276     353.804
  H      273.562    -263.947     353.566
  H      274.126    -263.408     355.130

 6  7  8  9  10  11  12  13  14  15  25  28  32  33  34  35 0
 6-311+G(2d,p)
 ****
 36  37  40 0
 6-311+G(2d,p)
 ****
 1  2  3  4  5  16  17  18  19  20  21  22  23  24 0
 3-21G
 ****
 26  27  29  30  31  38  39 41  42  43  44  45  46  47  48 0
 3-21G
 ****


