%nproc=1
%NoSave
%Mem=1900MB
#P OB98/GEN NMR

erre ene a

0 1
  C      205.417     331.450     656.307
  O      206.323     330.658     655.566
  H      205.733     331.454     657.353
  H      204.411     331.025     656.250
  H      205.409     332.480     655.940
  P      206.177     330.608     653.970
  C      203.946     329.331     653.752
  O      205.361     329.275     653.618
  C      203.310     328.166     652.999
  O      203.498     328.328     651.574
  C      203.909     326.809     653.343
  O      203.446     326.346     654.598
  C      203.455     325.982     652.150
  O      202.095     325.550     652.313
  C      203.574     327.003     650.996
  N      204.800     326.840     650.218
  C      204.960     325.622     649.565
  O      204.151     324.700     649.647
  N      206.109     325.485     648.832
  C      207.138     326.375     648.781
  O      208.187     326.167     648.180
  C      206.927     327.637     649.510
  C      205.786     327.808     650.182
  O      207.441     330.798     653.199
  O      205.120     331.768     653.652
  H      201.851     325.092     651.485
  H      205.587     332.540     653.280
  H      206.250     324.603     648.363
  H      207.714     328.377     649.485
  H      205.613     328.726     650.732
  H      202.720     326.909     650.315
  H      204.060     325.087     652.010
  H      205.005     326.868     653.332
  H      202.229     328.177     653.200
  H      203.590     330.277     653.330
  H      203.688     329.296     654.817
  P      204.459     326.234     655.830
  C      206.081     324.850     654.401
  O      205.349     324.916     655.616
  O      203.837     326.365     657.182
  O      205.504     327.419     655.572
  H      205.477     328.043     656.321
  H      206.634     323.934     654.367
  H      206.757     325.677     654.347
  H      205.403     324.888     653.574

 6  7  8  9  10  11  12  13  14  15  16  26  31  32  33  34  35 0
 6-311+G(2d,p)
 ****
 36  37 0
 6-311+G(2d,p)
 ****
 1  2  3  4  5  17  18  19  20  21  22  23  24  25 0
 3-21G
 ****
 27  28  29  30  38  39  40  41  42  43  44  45 0
 3-21G
 ****


