%nproc=1
%NoSave
%Mem=1900MB
#P OB98/GEN NMR

erre ene a

0 1
  C        8.435     -85.619      97.379
  O        9.733     -86.098      97.086
  H        7.971     -85.280      96.449
  H        8.483     -84.776      98.073
  H        7.823     -86.418      97.805
  P       10.659     -86.582      98.299
  C       11.614     -88.829      97.443
  O       11.846     -87.440      97.646
  C       12.510     -89.366      96.329
  O       12.143     -88.779      95.064
  C       13.990     -89.056      96.516
  O       14.553     -89.890      97.507
  C       14.503     -89.279      95.104
  O       14.658     -90.679      94.827
  C       13.345     -88.683      94.264
  N       13.580     -87.305      93.846
  C       14.655     -87.102      92.972
  O       15.349     -88.051      92.612
  N       14.920     -85.822      92.549
  C       14.160     -84.843      92.923
  N       14.473     -83.602      92.465
  C       12.997     -85.020      93.815
  C       12.775     -86.260      94.243
  O        9.960     -87.260      99.436
  O       11.401     -85.246      98.775
  H       14.897     -90.745      93.881
  H       10.913     -84.827      99.509
  H       12.383     -84.175      94.094
  H       11.939     -86.477      94.901
  H       13.176     -89.286      93.364
  H       15.472     -88.810      94.935
  H       14.127     -87.998      96.770
  H       12.341     -90.448      96.251
  H       15.270     -83.534      91.838
  H       10.560     -88.942      97.165
  H       13.867     -82.802      92.556
  H       11.788     -89.389      98.368
  P       15.772     -89.400      98.425
  C       15.221     -90.709     100.569
  O       16.071     -90.611      99.436
  O       15.584     -88.071      99.075
  O       17.031     -89.456      97.441
  H       17.026     -88.677      96.830
  H       15.515     -91.548     101.164
  H       14.209     -90.839     100.246
  H       15.298     -89.814     101.151

 6  7  8  9  10  11  12  13  14  15  16  26  30  31  32  33  35 0
 6-311+G(2d,p)
 ****
 37  38 0
 6-311+G(2d,p)
 ****
 1  2  3  4  5  17  18  19  20  21  22  23  24  25 0
 3-21G
 ****
 27  28  29  34  36  39  40  41  42  43  44  45  46 0
 3-21G
 ****


