%nproc=1
%NoSave
%Mem=1900MB
#P OB98/GEN NMR

erre ene a

0 1
  C      202.521    -899.220     314.514
  O      202.988    -898.600     315.699
  H      201.547    -899.660     314.719
  H      203.210    -900.000     314.199
  H      202.414    -898.480     313.709
  P      204.364    -897.780     315.601
  C      203.056    -895.530     315.549
  O      203.990    -896.370     314.907
  C      203.041    -894.150     314.882
  O      204.294    -893.480     315.213
  C      202.950    -894.220     313.352
  O      202.156    -893.150     312.882
  C      204.394    -894.040     312.893
  O      204.517    -893.560     311.566
  C      204.909    -893.050     313.960
  N      206.369    -893.080     314.073
  C      206.988    -891.930     314.564
  O      206.385    -890.930     314.972
  N      208.353    -891.950     314.588
  C      209.150    -892.980     314.155
  O      210.368    -892.940     314.184
  C      208.436    -894.170     313.651
  C      207.102    -894.150     313.620
  O      205.180    -898.550     314.458
  O      205.144    -897.670     316.866
  H      205.720    -899.250     314.835
  H      203.921    -892.780     311.476
  H      208.818    -891.130     314.939
  H      209.035    -895.000     313.281
  H      206.546    -895.010     313.239
  H      204.559    -892.040     313.744
  H      204.939    -894.990     312.957
  H      202.539    -895.170     312.991
  H      202.238    -893.560     315.304
  H      203.332    -895.430     316.611
  H      202.057    -895.990     315.490
  P      201.203    -893.400     311.595
  C      199.059    -893.890     313.008
  O      200.051    -894.390     312.118
  O      202.153    -894.340     310.728
  O      200.753    -892.140     310.937
  H      202.699    -894.970     311.246
  H      198.374    -894.674     313.255
  H      198.529    -893.089     312.537
  H      199.528    -893.532     313.900

 6  7  8  9  10  11  12  13  14  15  16  27  31  32  33  34  35 0
 6-311+G(2d,p)
 ****
 36  37 0
 6-311+G(2d,p)
 ****
 1  2  3  4  5  17  18  19  20  21  22  23  24  25 0
 3-21G
 ****
 26  28  29  30  38  39  40  41  42  43  44  45 0
 3-21G
 ****


