%nproc=1
%NoSave
%Mem=1900MB
#P OB98/GEN NMR

erre ene a

0 1
  C       67.422     -79.930      89.903
  O       67.331     -81.139      89.179
  H       67.962     -79.197      89.300
  H       67.980     -80.102      90.827
  H       66.429     -79.536      90.135
  P       66.258     -82.218      89.682
  C       65.284     -84.352      88.570
  O       66.408     -83.498      88.723
  C       65.441     -85.222      87.323
  O       65.351     -84.365      86.144
  C       66.778     -85.979      87.249
  O       66.548     -87.265      86.659
  C       67.582     -85.145      86.269
  O       68.618     -85.893      85.643
  C       66.482     -84.689      85.316
  N       69.309     -83.441      81.363
  C       68.907     -84.678      81.823
  N       69.378     -85.761      81.169
  N       68.112     -84.843      82.847
  C       67.698     -83.677      83.400
  C       68.026     -82.393      83.042
  C       68.922     -82.223      81.917
  O       69.331     -81.155      81.475
  N       67.448     -81.484      83.893
  C       66.792     -82.220      84.773
  N       66.915     -83.557      84.516
  O       64.868     -81.567      89.226
  O       66.282     -82.510      91.144
  H       68.923     -85.395      84.858
  H       64.481     -81.061      89.965
  H       69.937     -83.369      80.580
  H       66.236     -81.839      85.616
  H       66.180     -85.478      84.615
  H       68.035     -84.291      86.787
  H       69.969     -85.714      80.354
  H       67.274     -86.100      88.216
  H       69.059     -86.674      81.471
  H       64.598     -85.921      87.275
  H       64.381     -83.742      88.467
  H       65.184     -84.979      89.462
  P       66.681     -88.558      87.595
  C       66.011     -91.053      87.274
  O       66.528     -89.869      86.684
  O       65.319     -88.536      88.437
  O       67.876     -88.538      88.489
  H       65.481     -88.878      89.336
  H       65.972     -91.830      86.539
  H       65.026     -90.865      87.646
  H       66.645     -91.356      88.081

 6  7  8  9  10  11  12  13  14  15  26  29  33  34 0
 6-311+G(2d,p)
 ****
 36  38  39  40  41 0
 6-311+G(2d,p)
 ****
 1  2  3  4  5  16  17  18  19  20  21  22  23  24  25 0
 3-21G
 ****
 27  28  30  31  32  35  37  42  43  44  45  46  47 0
 3-21G
 ****
 48  49 0
 3-21G
 ****


