%nproc=1
%NoSave
%Mem=1900MB
#P OB98/GEN NMR

erre ene a

0 1
  C      -82.499     -37.185       0.557
  O      -82.173     -38.459       1.079
  H      -81.758     -36.918      -0.201
  H      -82.478     -36.430       1.348
  H      -83.487     -37.205       0.089
  P      -83.115     -39.074       2.219
  C      -83.891     -38.294       4.555
  O      -82.993     -38.082       3.474
  C      -83.401     -37.552       5.794
  O      -82.102     -38.035       6.188
  C      -83.263     -36.043       5.598
  O      -84.525     -35.409       5.728
  C      -82.305     -35.706       6.729
  O      -83.015     -35.696       7.982
  C      -81.334     -36.900       6.677
  N      -76.282     -36.544       6.461
  C      -77.117     -36.677       7.555
  N      -76.519     -36.672       8.766
  N      -78.417     -36.785       7.468
  C      -78.876     -36.703       6.199
  C      -78.152     -36.554       5.039
  C      -76.709     -36.494       5.142
  O      -75.932     -36.392       4.197
  N      -78.971     -36.446       3.944
  C      -80.187     -36.567       4.438
  N      -80.185     -36.711       5.806
  O      -82.886     -40.515       2.564
  O      -84.598     -38.812       1.683
  H      -83.779     -35.103       7.863
  H      -84.931     -39.575       1.177
  H      -75.289     -36.446       6.595
  H      -81.099     -36.560       3.854
  H      -80.948     -37.165       7.667
  H      -81.831     -34.731       6.614
  H      -75.582     -36.311       8.898
  H      -82.778     -35.799       4.647
  H      -77.116     -36.717       9.581
  H      -84.091     -37.780       6.617
  H      -83.931     -39.372       4.745
  H      -84.894     -37.946       4.292
  P      -84.869     -34.072       4.906
  C      -83.587     -31.850       4.594
  O      -83.806     -32.987       5.417
  O      -86.292     -33.636       4.986
  O      -84.368     -34.374       3.420
  H      -85.052     -34.807       2.853
  H      -82.859     -31.213       5.052
  H      -84.505     -31.314       4.475
  H      -83.232     -32.167       3.636

 6  7  8  9  10  11  12  13  14  15  26  29  33  34 0
 6-311+G(2d,p)
 ****
 36  38  39  40  41 0
 6-311+G(2d,p)
 ****
 1  2  3  4  5  16  17  18  19  20  21  22  23  24  25 0
 3-21G
 ****
 27  28  30  31  32  35  37  42  43  44  45  46  47 0
 3-21G
 ****
 48  49 0
 3-21G
 ****


