%nproc=1
%NoSave
%Mem=1900MB
#P OB98/GEN NMR

erre ene a

0 1
  C     -205.765     876.932    -164.085
  O     -204.516     877.598    -163.864
  P     -204.333     878.390    -162.482
  C     -201.752     878.644    -162.609
  O     -203.012     879.300    -162.580
  C     -201.530     877.914    -163.945
  O     -201.638     878.841    -165.062
  C     -200.160     877.245    -164.055
  O     -200.289     876.092    -164.893
  C     -199.339     878.290    -164.789
  O     -198.168     877.724    -165.375
  C     -200.386     878.812    -165.775
  N     -197.208     881.385    -168.730
  C     -197.234     880.040    -168.404
  N     -196.294     879.262    -168.981
  N     -198.108     879.511    -167.589
  C     -199.011     880.405    -167.115
  C     -199.082     881.760    -167.355
  C     -198.094     882.337    -168.239
  O     -198.016     883.522    -168.552
  N     -200.124     882.332    -166.669
  C     -200.674     881.324    -166.012
  N     -200.055     880.134    -166.278
  O     -203.911     877.229    -161.461
  O     -205.565     879.096    -162.022
  H     -198.428     876.869    -165.777
  H     -204.647     877.046    -160.853
  H     -196.509     881.742    -169.356
  H     -201.513     881.403    -165.339
  H     -200.500     878.159    -166.645
  H     -199.029     879.076    -164.093
  H     -195.628     879.600    -169.654
  H     -199.712     876.950    -163.102
  H     -196.318     878.267    -168.796
  H     -202.320     877.163    -164.068
  H     -201.682     877.921    -161.789
  H     -200.965     879.384    -162.425
  P     -200.478     874.679    -164.163
  C     -202.289     873.459    -165.561
  O     -200.915     873.636    -165.298
  O     -201.809     874.876    -163.296
  O     -199.319     874.251    -163.313
  H     -201.811     874.267    -162.536
  H     -202.547     873.990    -166.489
  H     -202.919     873.842    -164.746
  H     -202.490     872.401    -165.696
  H     -205.747     876.449    -165.039
  H     -206.560     877.648    -164.062
  H     -205.921     876.202    -163.318

 3  4  5  6  7  8  9  10  11  12  23  26  30  31 0
 6-311+G(2d,p)
 ****
 33  35  36  37  38 0
 6-311+G(2d,p)
 ****
 1  2  13  14  15  16  17  18  19  20  21  22  24  25 0
 3-21G
 ****
 27  28  29  32  34  39  40  41  42  43  44  45  46  47  48  49 0
 3-21G
 ****


