%nproc=1
%NoSave
%Mem=1900MB
#P OB98/GEN NMR

erre ene a

0 1
  C      745.510     716.782     708.258
  O      746.498     717.120     709.216
  H      746.011     716.388     707.370
  H      744.931     717.662     707.978
  H      744.848     716.003     708.659
  P      746.029     717.824     710.578
  C      747.187     720.034     709.871
  O      747.074     719.011     710.856
  C      748.269     721.047     710.262
  O      747.857     721.708     711.499
  C      749.651     720.418     710.527
  O      750.640     721.405     710.186
  C      749.601     720.207     712.021
  O      750.882     719.935     712.546
  C      748.907     721.495     712.469
  N      748.380     721.406     713.826
  C      749.238     721.829     714.843
  O      750.367     722.232     714.579
  N      748.795     721.755     716.145
  C      747.632     721.243     716.403
  N      747.264     721.179     717.713
  C      746.723     720.734     715.359
  C      747.153     720.848     714.099
  O      745.797     716.916     711.734
  O      744.695     718.611     710.164
  H      750.836     719.810     713.529
  H      743.914     718.130     710.507
  H      745.769     720.292     715.624
  H      746.558     720.499     713.260
  H      749.600     722.351     712.417
  H      748.981     719.335     712.271
  H      749.818     719.502     709.956
  H      748.326     721.819     709.481
  H      747.926     721.533     718.395
  H      746.216     720.530     709.797
  H      746.390     720.787     718.032
  H      747.437     719.583     708.897
  P      750.859     721.940     708.680
  C      753.177     720.835     708.445
  O      752.426     722.039     708.389
  O      750.084     723.187     708.372
  O      750.378     720.733     707.738
  H      750.008     721.107     706.919
  H      754.204     721.045     708.232
  H      752.797     720.144     707.722
  H      753.096     720.409     709.423

 6  7  8  9  10  11  12  13  14  15  16  26  30  31  32  33  35 0
 6-311+G(2d,p)
 ****
 37  38 0
 6-311+G(2d,p)
 ****
 1  2  3  4  5  17  18  19  20  21  22  23  24  25 0
 3-21G
 ****
 27  28  29  34  36  39  40  41  42  43  44  45  46 0
 3-21G
 ****


