%nproc=1
%NoSave
%Mem=1900MB
#P OB98/GEN NMR

erre ene a

0 1
  C     -291.420    1195.273    -132.206
  O     -290.126    1194.954    -132.703
  P     -289.095    1196.167    -132.886
  C     -287.109    1195.937    -131.187
  O     -287.642    1195.610    -132.493
  C     -285.792    1195.182    -130.971
  O     -286.063    1193.807    -130.613
  C     -284.906    1195.100    -132.200
  O     -284.256    1196.335    -132.443
  C     -283.975    1193.957    -131.804
  O     -282.960    1194.442    -130.886
  C     -284.929    1193.007    -131.060
  N     -284.074    1188.257    -132.784
  C     -283.370    1189.061    -131.967
  N     -283.641    1190.319    -131.568
  C     -284.804    1190.739    -132.128
  C     -285.611    1190.039    -132.988
  C     -285.220    1188.737    -133.336
  N     -285.933    1187.919    -134.169
  N     -286.697    1190.831    -133.366
  C     -286.551    1191.948    -132.701
  N     -285.428    1191.946    -131.937
  O     -289.453    1197.148    -131.676
  O     -289.163    1196.857    -134.218
  H     -282.593    1193.673    -130.413
  H     -289.322    1198.084    -131.941
  H     -282.437    1188.633    -131.548
  H     -287.243    1192.798    -132.759
  H     -284.475    1192.556    -130.199
  H     -283.468    1193.493    -132.655
  H     -285.471    1194.819    -133.097
  H     -285.272    1195.674    -130.153
  H     -287.848    1195.617    -130.431
  H     -285.517    1187.062    -134.487
  H     -286.727    1188.333    -134.689
  H     -286.971    1197.018    -131.116
  P     -283.692    1196.620    -133.928
  C     -285.584    1198.220    -134.624
  O     -284.210    1198.117    -134.264
  O     -284.648    1195.684    -134.811
  O     -282.214    1196.390    -134.104
  H     -285.580    1195.815    -134.593
  H     -285.804    1199.241    -134.778
  H     -286.198    1197.809    -133.814
  H     -285.771    1197.667    -135.552
  H     -292.004    1194.379    -132.132
  H     -291.899    1195.958    -132.873
  H     -291.330    1195.721    -131.239

 3  4  5  6  7  8  9  10  11  12  22  25  29  30  31  32 0
 6-311+G(2d,p)
 ****
 33  36  37 0
 6-311+G(2d,p)
 ****
 1  2  13  14  15  16  17  18  19  20  21  23  24  26 0
 3-21G
 ****
 27  28  34  35  38  39  40  41  42  43  44  45  46  47  48 0
 3-21G
 ****


