%nproc=1
%NoSave
%Mem=1900MB
#P OB98/GEN NMR

erre ene a

0 1
  C      -16.827     203.605      50.258
  O      -16.712     205.008      50.417
  P      -18.061     205.834      50.711
  C      -17.819     207.782      49.009
  O      -17.735     207.368      50.367
  C      -17.933     209.304      48.898
  O      -19.320     209.684      49.067
  C      -17.102     210.069      49.930
  O      -16.593     211.244      49.297
  C      -18.125     210.479      50.973
  O      -17.703     211.627      51.704
  C      -19.375     210.686      50.103
  N      -20.609     210.588      50.877
  C      -21.371     211.753      51.000
  O      -20.954     212.815      50.536
  N      -22.558     211.700      51.687
  C      -22.899     210.605      52.293
  N      -24.084     210.600      52.960
  C      -22.061     209.389      52.291
  C      -20.954     209.443      51.554
  O      -18.146     205.823      52.306
  O      -19.287     205.269      50.071
  H      -16.825     211.431      52.101
  H      -19.075     205.819      52.605
  H      -22.374     208.514      52.842
  H      -20.291     208.592      51.475
  H      -19.347     211.669      49.615
  H      -18.284     209.657      51.682
  H      -16.275     209.479      50.334
  H      -17.638     209.596      47.882
  H      -24.632     211.450      52.957
  H      -18.711     207.339      48.556
  H      -24.430     209.792      53.460
  H      -16.942     207.420      48.464
  P      -15.004     211.459      49.296
  C      -15.228     213.992      48.946
  O      -14.762     212.771      48.406
  O      -14.526     210.300      48.292
  O      -14.277     211.377      50.597
  H      -13.553     210.281      48.252
  H      -14.879     214.810      48.311
  H      -14.837     214.138      49.957
  H      -16.321     214.000      48.961
  H      -15.860     203.187      50.069
  H      -17.475     203.391      49.434
  H      -17.232     203.177      51.151

 3  4  5  6  7  8  9  10  11  12  13  21  23  27  28  29  30  32 0
 6-311+G(2d,p)
 ****
 34  35 0
 6-311+G(2d,p)
 ****
 1  2  14  15  16  17  18  19  20  22  24  25  26 0
 3-21G
 ****
 31  33  36  37  38  39  40  41  42  43  44  45  46 0
 3-21G
 ****


