%nproc=1
%NoSave
%Mem=1900MB
#P OB98/GEN NMR

erre ene a

0 1
  C     -149.198    -311.817    -292.735
  O     -150.488    -311.211    -292.841
  P     -151.618    -311.694    -291.805
  C     -153.333    -309.722    -291.888
  O     -152.990    -311.029    -292.311
  C     -152.844    -308.675    -292.896
  O     -153.025    -309.177    -294.254
  C     -153.556    -307.322    -292.800
  O     -152.569    -306.313    -293.061
  C     -154.559    -307.379    -293.937
  O     -154.978    -306.089    -294.349
  C     -153.760    -308.168    -294.979
  N     -154.606    -308.761    -296.013
  C     -154.764    -308.033    -297.187
  O     -154.297    -306.907    -297.345
  N     -155.524    -308.627    -298.159
  C     -156.186    -309.815    -298.043
  O     -156.854    -310.303    -298.948
  C     -156.073    -310.484    -296.739
  C     -155.300    -309.932    -295.797
  O     -151.228    -310.857    -290.502
  O     -151.649    -313.173    -291.625
  H     -150.901    -309.961    -290.697
  H     -155.415    -305.639    -293.598
  H     -155.627    -308.131    -299.031
  H     -156.632    -311.399    -296.587
  H     -155.212    -310.387    -294.820
  H     -153.022    -307.519    -295.465
  H     -155.445    -307.947    -293.622
  H     -154.013    -307.148    -291.823
  H     -151.766    -308.537    -292.745
  H     -152.876    -309.514    -290.915
  H     -154.417    -309.661    -291.749
  P     -152.031    -305.434    -291.822
  C     -149.660    -305.285    -292.916
  O     -150.758    -304.615    -292.343
  O     -151.374    -306.590    -290.927
  O     -153.080    -304.664    -291.093
  H     -150.810    -307.192    -291.437
  H     -149.019    -304.549    -293.416
  H     -149.985    -306.017    -293.660
  H     -149.079    -305.783    -292.137
  H     -148.549    -311.406    -293.479
  H     -149.287    -312.873    -292.883
  H     -148.793    -311.626    -291.763

 3  4  5  6  7  8  9  10  11  12  13  24  28  29  30  31  32 0
 6-311+G(2d,p)
 ****
 33  34 0
 6-311+G(2d,p)
 ****
 1  2  14  15  16  17  18  19  20  21  22  23  25  26  27 0
 3-21G
 ****
 35  36  37  38  39  40  41  42  43  44  45 0
 3-21G
 ****


