%nproc=1
%NoSave
%Mem=1900MB
#P OB98/GEN NMR

erre ene a

0 1
  C      368.927    -687.444     525.576
  O      368.961    -688.208     526.768
  H      369.492    -686.520     525.741
  H      367.897    -687.188     525.325
  H      369.389    -687.993     524.751
  P      368.353    -689.690     526.751
  C      368.563    -689.775     529.327
  O      367.707    -689.944     528.199
  C      367.752    -689.308     530.532
  O      367.294    -687.947     530.307
  C      366.501    -690.128     530.794
  O      366.810    -691.364     531.391
  C      365.706    -689.164     531.667
  O      366.155    -689.234     533.035
  C      366.066    -687.792     531.046
  N      364.988    -687.284     530.196
  C      363.841    -686.863     530.838
  O      363.694    -686.870     532.069
  N      362.809    -686.446     530.019
  C      362.789    -686.572     528.667
  O      361.764    -686.433     527.996
  C      364.047    -686.969     528.039
  C      365.077    -687.324     528.813
  O      369.266    -690.762     526.270
  O      367.063    -689.553     525.808
  H      367.280    -689.916     524.927
  H      365.558    -688.645     533.542
  H      361.952    -686.170     530.487
  H      364.090    -687.010     526.949
  H      366.012    -687.657     528.370
  H      366.258    -687.058     531.844
  H      364.644    -689.390     531.656
  H      365.947    -690.278     529.858
  H      368.418    -689.297     531.412
  H      369.327    -689.030     529.078
  H      369.060    -690.732     529.539
  P      365.622    -692.349     531.856
  C      367.421    -693.972     532.763
  O      366.191    -693.286     533.031
  O      364.920    -693.079     530.756
  O      364.607    -691.382     532.643
  H      363.708    -691.538     532.290
  H      367.695    -694.559     533.615
  H      368.191    -693.257     532.560
  H      367.295    -694.611     531.914

 6  7  8  9  10  11  12  13  14  15  16  27  31  32  33  34  35 0
 6-311+G(2d,p)
 ****
 36  37 0
 6-311+G(2d,p)
 ****
 1  2  3  4  5  17  18  19  20  21  22  23  24  25 0
 3-21G
 ****
 26  28  29  30  38  39  40  41  42  43  44  45 0
 3-21G
 ****


