%nproc=1
%NoSave
%Mem=1900MB
#P OB98/GEN NMR

erre ene a

0 1
  C       62.432    -172.125      30.530
  O       62.016    -170.807      30.237
  H       62.778    -172.594      29.605
  H       61.592    -172.704      30.919
  H       63.253    -172.124      31.251
  P       61.591    -169.842      31.442
  C       59.164    -170.467      30.828
  O       60.099    -170.249      31.875
  C       57.738    -170.175      31.305
  O       57.315    -171.248      32.185
  C       57.603    -168.858      32.075
  O       56.353    -168.251      31.749
  C       57.600    -169.297      33.526
  O       56.920    -168.371      34.370
  C       56.917    -170.661      33.440
  N       55.404    -172.542      37.878
  C       54.726    -171.760      36.965
  N       53.462    -171.410      37.286
  N       55.242    -171.354      35.834
  C       56.507    -171.797      35.633
  C       57.284    -172.575      36.459
  C       56.707    -173.000      37.717
  O       57.265    -173.680      38.572
  N       58.523    -172.798      35.912
  C       58.494    -172.155      34.759
  N       57.297    -171.523      34.549
  O       61.787    -168.382      31.180
  O       62.475    -170.338      32.677
  H       56.613    -168.872      35.156
  H       63.204    -169.718      32.858
  H       54.963    -172.818      38.738
  H       59.307    -172.113      34.047
  H       55.824    -170.584      33.457
  H       58.632    -169.395      33.886
  H       52.994    -171.708      38.128
  H       58.415    -168.166      31.854
  H       52.932    -170.863      36.620
  H       57.070    -170.192      30.436
  H       59.240    -171.512      30.512
  H       59.416    -169.821      29.979
  P       56.337    -166.976      30.775
  C       56.483    -165.139      32.565
  O       57.140    -165.777      31.478
  O       54.999    -166.604      30.230
  O       57.332    -167.419      29.596
  H       57.010    -167.041      28.754
  H       57.108    -164.361      32.953
  H       56.288    -165.856      33.334
  H       55.559    -164.719      32.226

 6  7  8  9  10  11  12  13  14  15  26  29  33  34 0
 6-311+G(2d,p)
 ****
 36  38  39  40  41 0
 6-311+G(2d,p)
 ****
 1  2  3  4  5  16  17  18  19  20  21  22  23  24  25 0
 3-21G
 ****
 27  28  30  31  32  35  37  42  43  44  45  46  47 0
 3-21G
 ****
 48  49 0
 3-21G
 ****


