%nproc=1
%NoSave
%Mem=1900MB
#P OB98/GEN NMR

erre ene a

0 1
  C     -178.734     -21.356     110.322
  O     -179.664     -21.038     111.337
  H     -179.273     -21.784     109.472
  H     -178.010     -22.091     110.685
  H     -178.215     -20.452     109.992
  P     -179.069     -20.490     112.720
  C     -179.069     -22.834     113.845
  O     -178.304     -21.715     113.417
  C     -178.134     -23.932     114.345
  O     -177.106     -24.186     113.358
  C     -177.388     -23.578     115.623
  O     -178.186     -23.728     116.785
  C     -176.242     -24.573     115.576
  O     -176.623     -25.846     116.114
  C     -175.948     -24.672     114.067
  N     -174.735     -23.942     113.702
  C     -173.576     -24.710     113.604
  O     -173.551     -25.924     113.802
  N     -172.431     -24.026     113.304
  C     -172.324     -22.675     113.148
  O     -171.254     -22.117     112.937
  C     -173.576     -21.912     113.283
  C     -174.708     -22.571     113.553
  O     -180.373     -20.291     113.626
  O     -178.269     -19.233     112.607
  H     -180.573     -19.341     113.713
  H     -175.965     -26.488     115.782
  H     -171.582     -24.563     113.225
  H     -173.527     -20.838     113.169
  H     -175.641     -22.031     113.669
  H     -175.816     -25.720     113.771
  H     -175.393     -24.220     116.153
  H     -176.978     -22.560     115.554
  H     -178.716     -24.851     114.481
  H     -179.655     -23.223     113.004
  H     -179.758     -22.515     114.634
  P     -178.050     -22.617     117.935
  C     -176.206     -23.842     119.364
  O     -176.559     -22.763     118.507
  O     -178.987     -23.250     119.068
  O     -178.440     -21.250     117.482
  H     -179.033     -24.221     118.998
  H     -175.174     -23.760     119.634
  H     -176.370     -24.769     118.856
  H     -176.809     -23.808     120.247

 6  7  8  9  10  11  12  13  14  15  16  27  31  32  33  34  35 0
 6-311+G(2d,p)
 ****
 36  37 0
 6-311+G(2d,p)
 ****
 1  2  3  4  5  17  18  19  20  21  22  23  24  25 0
 3-21G
 ****
 26  28  29  30  38  39  40  41  42  43  44  45 0
 3-21G
 ****


