%nproc=1
%NoSave
%Mem=1900MB
#P OB98/GEN NMR

erre ene a

0 1
  C      164.064    -143.592    -117.313
  O      164.272    -144.923    -117.781
  P      162.995    -145.781    -118.232
  C      161.969    -146.594    -120.457
  O      162.829    -145.652    -119.824
  C      161.769    -146.232    -121.938
  O      161.146    -144.922    -122.021
  C      163.059    -146.130    -122.759
  O      163.553    -147.308    -123.390
  C      162.626    -145.186    -123.878
  O      161.949    -145.930    -124.909
  C      161.639    -144.244    -123.196
  N      161.889    -139.262    -124.331
  C      161.199    -140.281    -124.886
  N      161.189    -141.580    -124.525
  C      161.983    -141.786    -123.462
  C      162.744    -140.845    -122.789
  C      162.682    -139.525    -123.266
  N      163.393    -138.489    -122.708
  N      163.440    -141.431    -121.753
  C      163.117    -142.708    -121.813
  N      162.230    -142.971    -122.820
  O      161.751    -145.569    -117.438
  O      163.520    -147.289    -118.071
  H      161.609    -145.275    -125.546
  H      162.788    -147.845    -117.741
  H      160.574    -140.021    -125.736
  H      163.501    -143.473    -121.152
  H      160.773    -144.018    -123.827
  H      163.475    -144.690    -124.357
  H      163.859    -145.665    -122.172
  H      161.091    -146.961    -122.397
  H      161.003    -146.606    -119.947
  H      163.325    -137.581    -123.137
  H      164.033    -138.677    -121.950
  H      162.410    -147.582    -120.323
  P      165.001    -147.898    -123.040
  C      165.588    -148.705    -120.622
  O      164.781    -148.850    -121.770
  O      166.075    -146.881    -122.874
  O      165.248    -148.937    -124.230
  H      164.668    -149.716    -124.210
  H      165.147    -149.286    -119.808
  H      165.646    -147.658    -120.317
  H      166.592    -149.089    -120.825
  H      165.005    -143.154    -117.052
  H      163.429    -143.612    -116.452
  H      163.602    -143.011    -118.084

 3  4  5  6  7  8  9  10  11  12  22  25  29  30  31  32 0
 6-311+G(2d,p)
 ****
 33  36  37 0
 6-311+G(2d,p)
 ****
 1  2  13  14  15  16  17  18  19  20  21  23  24  26 0
 3-21G
 ****
 27  28  34  35  38  39  40  41  42  43  44  45  46  47  48 0
 3-21G
 ****


