%nproc=1
%NoSave
%Mem=1900MB
#P OB98/GEN NMR

erre ene a

0 1
  C     -551.659    -190.313     459.422
  O     -551.156    -189.947     458.155
  H     -551.466    -189.495     460.121
  H     -551.144    -191.209     459.779
  H     -552.737    -190.496     459.389
  P     -551.679    -190.738     456.864
  C     -549.277    -191.075     455.986
  O     -550.581    -190.570     455.709
  C     -548.282    -190.720     454.877
  O     -548.573    -191.480     453.685
  C     -548.366    -189.247     454.470
  O     -547.622    -188.351     455.275
  C     -547.817    -189.288     453.045
  O     -546.380    -189.212     453.050
  C     -548.279    -190.656     452.541
  N     -550.093    -190.495     447.764
  C     -548.780    -190.502     448.197
  N     -547.834    -190.396     447.238
  N     -548.436    -190.589     449.455
  C     -549.490    -190.595     450.308
  C     -550.829    -190.574     449.999
  C     -551.204    -190.533     448.599
  O     -552.351    -190.522     448.165
  N     -551.608    -190.594     451.133
  C     -550.740    -190.550     452.122
  N     -549.441    -190.572     451.671
  O     -552.888    -189.824     456.329
  O     -552.140    -192.142     457.115
  H     -546.081    -189.023     452.142
  H     -553.525    -190.370     455.835
  H     -550.298    -190.457     446.784
  H     -550.997    -190.522     453.177
  H     -547.490    -191.164     451.975
  H     -548.178    -188.446     452.447
  H     -548.053    -190.210     446.268
  H     -549.412    -188.924     454.424
  H     -546.891    -190.130     447.526
  H     -547.271    -190.993     455.200
  H     -549.372    -192.156     456.067
  H     -548.925    -190.702     456.948
  P     -548.262    -186.946     455.708
  C     -546.824    -185.677     453.951
  O     -547.207    -185.809     455.303
  O     -548.170    -186.997     457.306
  O     -549.654    -186.717     455.237
  H     -549.022    -187.294     457.683
  H     -546.120    -184.877     453.856
  H     -547.687    -185.465     453.355
  H     -546.375    -186.589     453.617

 6  7  8  9  10  11  12  13  14  15  26  29  33  34 0
 6-311+G(2d,p)
 ****
 36  38  39  40  41 0
 6-311+G(2d,p)
 ****
 1  2  3  4  5  16  17  18  19  20  21  22  23  24  25 0
 3-21G
 ****
 27  28  30  31  32  35  37  42  43  44  45  46  47 0
 3-21G
 ****
 48  49 0
 3-21G
 ****


