%nproc=1
%NoSave
%Mem=1900MB
#P OB98/GEN NMR

erre ene a

0 1
  C     1814.452     -83.845     521.157
  O     1815.090     -84.987     521.689
  H     1813.716     -83.468     521.874
  H     1813.941     -84.095     520.232
  H     1815.195     -83.059     520.974
  P     1816.130     -85.750     520.758
  C     1815.902     -86.695     518.330
  O     1815.270     -86.472     519.594
  C     1815.257     -87.896     517.647
  O     1813.825     -87.739     517.641
  C     1815.673     -88.047     516.193
  O     1816.937     -88.663     516.037
  C     1814.538     -88.961     515.678
  O     1814.822     -90.341     515.950
  C     1813.325     -88.470     516.493
  N     1812.434     -87.649     515.670
  C     1811.149     -88.173     515.482
  O     1810.766     -89.225     515.978
  N     1810.320     -87.421     514.681
  C     1810.650     -86.270     514.022
  O     1809.891     -85.691     513.280
  C     1812.018     -85.792     514.246
  C     1812.845     -86.490     515.029
  O     1816.635     -86.962     521.671
  O     1817.268     -84.915     520.263
  H     1817.543     -86.783     521.976
  H     1815.396     -90.651     515.218
  H     1809.402     -87.781     514.543
  H     1812.334     -84.884     513.740
  H     1813.885     -86.162     515.199
  H     1812.761     -89.323     516.880
  H     1814.413     -88.863     514.608
  H     1815.605     -87.093     515.662
  H     1815.517     -88.799     518.234
  H     1816.966     -86.883     518.482
  H     1815.783     -85.790     517.725
  P     1817.837     -88.168     514.794
  C     1817.820     -88.719     512.233
  O     1817.161     -88.771     513.490
  O     1819.156     -89.061     515.025
  O     1818.108     -86.703     514.805
  H     1818.946     -89.919     515.492
  H     1817.203     -89.175     511.488
  H     1818.750     -89.244     512.296
  H     1818.004     -87.699     511.968

 6  7  8  9  10  11  12  13  14  15  16  27  31  32  33  34  35 0
 6-311+G(2d,p)
 ****
 36  37 0
 6-311+G(2d,p)
 ****
 1  2  3  4  5  17  18  19  20  21  22  23  24  25 0
 3-21G
 ****
 26  28  29  30  38  39  40  41  42  43  44  45 0
 3-21G
 ****


