%nproc=1
%NoSave
%Mem=1900MB
#P OB98/GEN NMR

erre ene a

0 1
  C      -84.658     187.672    -125.202
  O      -85.885     188.320    -125.496
  P      -86.395     188.304    -127.016
  C      -86.176     190.881    -127.013
  O      -85.873     189.665    -127.686
  C      -86.306     192.033    -128.003
  O      -85.204     191.964    -128.951
  C      -87.613     192.027    -128.811
  O      -88.132     193.364    -128.881
  C      -87.164     191.636    -130.209
  O      -88.055     192.113    -131.211
  C      -85.772     192.266    -130.241
  N      -82.232     193.643    -133.569
  C      -82.705     194.312    -132.460
  N      -82.203     195.549    -132.240
  N      -83.595     193.819    -131.638
  C      -83.985     192.562    -131.963
  C      -83.582     191.793    -133.029
  C      -82.643     192.376    -133.964
  O      -82.252     191.870    -135.013
  N      -84.190     190.562    -133.015
  C      -84.961     190.588    -131.946
  N      -84.909     191.797    -131.300
  O      -87.971     188.530    -126.867
  O      -86.097     187.055    -127.774
  H      -88.962     191.928    -130.899
  H      -88.452     187.802    -127.305
  H      -81.560     194.075    -134.178
  H      -85.594     189.771    -131.620
  H      -85.849     193.358    -130.333
  H      -87.114     190.543    -130.278
  H      -81.490     195.972    -132.810
  H      -88.381     191.352    -128.420
  H      -82.521     196.045    -131.417
  H      -86.194     192.978    -127.454
  H      -85.375     191.106    -126.300
  H      -87.113     190.753    -126.460
  P      -89.604     193.577    -128.280
  C      -90.632     193.476    -130.673
  O      -90.610     192.953    -129.359
  O      -89.833     195.156    -128.413
  O      -89.764     193.093    -126.876
  H      -90.492     195.462    -127.762
  H      -89.812     194.177    -130.850
  H      -91.579     193.996    -130.832
  H      -90.552     192.650    -131.384
  H      -84.448     187.764    -124.157
  H      -83.870     188.127    -125.766
  H      -84.730     186.636    -125.462

 3  4  5  6  7  8  9  10  11  12  23  26  30  31  33  0
 6-311+G(2d,p)
 ****
 35  36  37  38 0
 6-311+G(2d,p)
 ****
 1  2  13  14  15  16  17  18  19  20  21  22  24  25  27  28  29 0
 3-21G
 ****
 32  34  39  40  41  42  43  44  45  46  47  48  49 0
 3-21G
 ****


