%nproc=1
%NoSave
%Mem=1900MB
#P OB98/GEN NMR

erre ene a

0 1
  C       11.791    -213.407       4.819
  O       12.499    -213.029       3.648
  P       12.786    -214.181       2.565
  C       12.816    -212.582       0.497
  O       13.538    -213.470       1.340
  C       13.797    -211.764      -0.344
  O       14.618    -210.937       0.504
  C       14.753    -212.602      -1.183
  O       14.123    -213.030      -2.377
  C       15.900    -211.622      -1.409
  O       15.594    -210.708      -2.475
  C       15.963    -210.886      -0.059
  N       20.473    -210.218       2.126
  C       19.882    -209.537       1.078
  N       20.581    -208.494       0.575
  N       18.716    -209.840       0.577
  C       18.138    -210.912       1.172
  C       18.630    -211.678       2.208
  C       19.903    -211.299       2.782
  O       20.417    -211.810       3.775
  N       17.771    -212.701       2.526
  C       16.753    -212.526       1.712
  N       16.915    -211.448       0.886
  O       11.333    -214.513       1.994
  O       13.489    -215.392       3.099
  H       15.729    -211.152      -3.333
  H       10.964    -215.311       2.422
  H       21.368    -209.928       2.480
  H       15.860    -213.145       1.693
  H       16.217    -209.826      -0.178
  H       16.830    -212.124      -1.682
  H       21.497    -208.216       0.893
  H       15.113    -213.464      -0.607
  H       20.162    -207.980      -0.196
  H       13.206    -211.095      -0.989
  H       12.219    -211.906       1.110
  H       12.147    -213.166      -0.145
  P       14.708    -214.347      -3.090
  C       12.296    -215.265      -3.437
  O       13.541    -214.931      -4.023
  O       14.796    -215.403      -1.884
  O       16.029    -214.164      -3.751
  H       15.580    -215.970      -2.004
  H       11.508    -215.134      -4.183
  H       12.076    -214.640      -2.566
  H       12.323    -216.317      -3.125
  H       11.667    -212.553       5.452
  H       12.342    -214.161       5.341
  H       10.830    -213.791       4.547

 3  4  5  6  7  8  9  10  11  12  23  26  30  31 0
 6-311+G(2d,p)
 ****
 33  35  36  37  38 0
 6-311+G(2d,p)
 ****
 1  2  13  14  15  16  17  18  19  20  21  22  24  25 0
 3-21G
 ****
 27  28  29  32  34  39  40  41  42  43  44  45  46  47  48  49 0
 3-21G
 ****


