%nproc=1
%NoSave
%Mem=1900MB
#P OB98/GEN NMR

erre ene a

0 1
  C     -105.199     437.647     945.337
  O     -106.190     438.542     945.797
  H     -105.013     437.842     944.268
  H     -105.527     436.608     945.443
  H     -104.260     437.797     945.882
  P     -106.818     438.284     947.251
  C     -105.968     440.509     948.260
  O     -107.114     439.742     947.856
  C     -106.375     441.910     948.730
  O     -106.951     442.658     947.624
  C     -107.465     441.907     949.813
  O     -107.008     441.419     951.064
  C     -108.024     443.316     949.708
  O     -107.301     444.283     950.469
  C     -107.865     443.612     948.202
  N     -109.153     443.634     947.498
  C     -110.046     444.618     947.876
  O     -109.805     445.453     948.748
  N     -111.256     444.621     947.226
  C     -111.664     443.698     946.305
  O     -112.774     443.725     945.790
  C     -110.676     442.645     945.962
  C     -109.490     442.653     946.567
  O     -106.019     437.396     948.161
  O     -108.282     437.731     946.933
  H     -107.347     444.004     951.403
  H     -108.675     437.284     947.721
  H     -111.913     445.346     947.478
  H     -110.972     441.900     945.233
  H     -108.758     441.893     946.338
  H     -107.392     444.603     948.054
  H     -109.064     443.356     950.054
  H     -108.260     441.222     949.491
  H     -105.479     442.445     949.065
  H     -105.297     440.595     947.397
  H     -105.435     439.984     949.063
  P     -108.014     441.051     952.250
  C     -107.958     438.483     951.772
  O     -107.698     439.534     952.715
  O     -109.435     441.474     952.100
  O     -107.386     441.905     953.475
  H     -108.115     442.202     954.042
  H     -107.705     437.540     952.210
  H     -107.367     438.638     950.893
  H     -108.995     438.488     951.510

 6  7  8  9  10  11  12  13  14  15  16  26  31  32  33  34  35 0
 6-311+G(2d,p)
 ****
 36  37 0
 6-311+G(2d,p)
 ****
 1  2  3  4  5  17  18  19  20  21  22  23  24  25 0
 3-21G
 ****
 27  28  29  30  38  39  40  41  42  43  44  45 0
 3-21G
 ****


