%nproc=1
%NoSave
%Mem=1900MB
#P OB98/GEN NMR

erre ene a

0 1
  C     -126.473    -153.143    -150.006
  O     -125.915    -153.409    -148.737
  H     -126.862    -154.078    -150.419
  H     -125.707    -152.755    -150.683
  H     -127.296    -152.427    -149.926
  P     -125.387    -152.181    -147.850
  C     -123.264    -150.722    -147.834
  O     -124.094    -151.593    -148.594
  C     -122.360    -149.921    -148.769
  O     -123.151    -149.227    -149.760
  C     -121.540    -148.844    -148.064
  O     -120.458    -149.416    -147.360
  C     -121.157    -147.968    -149.246
  O     -120.059    -148.538    -149.977
  C     -122.449    -148.007    -150.094
  N     -123.300    -146.834    -149.886
  C     -122.647    -145.611    -149.785
  O     -121.425    -145.492    -149.856
  N     -123.448    -144.523    -149.548
  C     -124.794    -144.560    -149.321
  O     -125.434    -143.601    -148.900
  C     -125.439    -145.865    -149.518
  C     -124.675    -146.931    -149.771
  O     -125.211    -152.461    -146.395
  O     -126.488    -151.041    -148.098
  H     -127.097    -151.008    -147.333
  H     -119.265    -148.425    -149.416
  H     -122.978    -143.639    -149.425
  H     -126.517    -145.924    -149.408
  H     -125.126    -147.909    -149.891
  H     -122.205    -148.066    -151.163
  H     -120.851    -146.966    -148.940
  H     -122.182    -148.265    -147.388
  H     -121.703    -150.626    -149.297
  H     -122.645    -151.327    -147.160
  H     -123.894    -150.055    -147.237
  P     -119.815    -148.688    -146.086
  C     -118.220    -146.729    -145.649
  O     -119.081    -147.357    -146.592
  O     -118.982    -149.561    -145.210
  O     -121.083    -148.115    -145.285
  H     -121.037    -148.421    -144.359
  H     -117.786    -145.856    -146.089
  H     -117.444    -147.409    -145.366
  H     -118.783    -146.450    -144.783

 6  7  8  9  10  11  12  13  14  15  16  27  31  32  33  34  35 0
 6-311+G(2d,p)
 ****
 36  37 0
 6-311+G(2d,p)
 ****
 1  2  3  4  5  17  18  19  20  21  22  23  24  25 0
 3-21G
 ****
 26  28  29  30  38  39  40  41  42  43  44  45 0
 3-21G
 ****


