%nproc=1
%NoSave
%Mem=1900MB
#P OB98/GEN NMR

erre ene a

0 1
  C      451.160     623.527     164.398
  O      451.533     624.806     164.865
  H      451.722     623.312     163.482
  H      450.090     623.515     164.159
  H      451.383     622.751     165.127
  P      451.086     625.247     166.334
  C      450.659     627.722     165.736
  O      451.452     626.810     166.470
  C      451.212     629.146     165.843
  O      451.074     629.602     167.225
  C      452.690     629.269     165.463
  O      452.893     630.580     164.909
  C      453.368     629.162     166.814
  O      454.699     629.639     166.780
  C      452.391     629.955     167.684
  N      452.564     629.679     169.116
  C      453.661     630.279     169.732
  O      454.484     630.972     169.141
  N      453.816     630.004     171.063
  C      453.039     629.169     171.813
  O      453.241     628.935     172.995
  C      451.915     628.532     171.093
  C      451.735     628.813     169.802
  O      451.580     624.392     167.451
  O      449.485     625.271     166.280
  H      454.726     630.547     166.410
  H      449.110     625.062     167.153
  H      454.599     630.434     171.535
  H      451.282     627.847     171.647
  H      450.916     628.360     169.243
  H      452.523     631.033     167.543
  H      453.408     628.119     167.138
  H      453.020     628.507     164.752
  H      450.589     629.818     165.230
  H      449.630     627.687     166.142
  H      450.626     627.414     164.683
  P      452.446     630.964     163.420
  C      454.456     632.568     163.235
  O      453.048     632.398     163.053
  O      450.981     630.822     163.162
  O      453.287     629.958     162.473
  H      452.796     629.796     161.659
  H      454.734     633.563     162.957
  H      454.982     631.866     162.622
  H      454.705     632.402     164.262

 6  7  8  9  10  11  12  13  14  15  16  26  31  32  33  34  35 0
 6-311+G(2d,p)
 ****
 36  37 0
 6-311+G(2d,p)
 ****
 1  2  3  4  5  17  18  19  20  21  22  23  24  25 0
 3-21G
 ****
 27  28  29  30  38  39  40  41  42  43  44  45 0
 3-21G
 ****


