%nproc=1
%NoSave
%Mem=1900MB
#P OB98/GEN NMR

erre ene a

0 1
  C      132.673    -324.377      37.692
  O      133.865    -325.098      37.430
  H      132.352    -323.886      36.764
  H      132.852    -323.620      38.456
  H      131.880    -325.064      38.012
  P      134.507    -325.902      38.659
  C      136.537    -324.314      39.038
  O      135.302    -324.806      39.545
  C      137.026    -323.132      39.867
  O      137.420    -323.615      41.189
  C      138.233    -322.399      39.280
  O      138.096    -320.994      39.512
  C      139.407    -322.921      40.087
  O      140.518    -322.047      40.076
  C      138.738    -323.089      41.455
  N      141.164    -323.338      45.873
  C      140.440    -322.303      45.296
  N      140.358    -321.158      45.998
  N      139.847    -322.385      44.123
  C      139.996    -323.603      43.540
  C      140.691    -324.700      43.996
  C      141.353    -324.597      45.287
  O      142.011    -325.467      45.837
  N      140.629    -325.738      43.091
  C      139.900    -325.271      42.084
  N      139.503    -323.967      42.322
  O      135.690    -326.739      37.974
  O      133.567    -326.764      39.429
  H      141.111    -322.295      40.814
  H      135.846    -327.576      38.454
  H      141.595    -323.205      46.763
  H      139.644    -325.799      41.183
  H      138.633    -322.141      41.994
  H      139.725    -323.896      39.695
  H      140.753    -321.018      46.925
  H      138.355    -322.576      38.199
  H      139.827    -320.378      45.596
  H      136.185    -322.447      40.030
  H      136.397    -323.999      37.998
  H      137.289    -325.116      39.061
  P      137.836    -320.050      38.248
  C      140.185    -318.995      37.858
  O      139.213    -319.912      37.410
  O      137.668    -318.584      38.922
  O      136.623    -320.408      37.451
  H      136.747    -318.307      38.886
  H      141.030    -319.022      37.202
  H      140.494    -319.258      38.848
  H      139.769    -318.009      37.864

 6  7  8  9  10  11  12  13  14  15  26  29  33  34 0
 6-311+G(2d,p)
 ****
 36  38  39  40  41 0
 6-311+G(2d,p)
 ****
 1  2  3  4  5  16  17  18  19  20  21  22  23  24  25 0
 3-21G
 ****
 27  28  30  31  32  35  37  42  43  44  45  46  47 0
 3-21G
 ****
 48  49 0
 3-21G
 ****


