%nproc=1
%NoSave
%Mem=1900MB
#P OB98/GEN NMR

erre ene a

0 1
  C     -166.603      -8.585    -166.232
  O     -166.952      -9.290    -165.061
  P     -166.512     -10.814    -164.846
  C     -164.456     -10.252    -163.396
  O     -164.919     -10.808    -164.622
  C     -163.923     -11.359    -162.479
  O     -162.751     -11.966    -163.110
  C     -163.494     -10.834    -161.092
  O     -164.078     -11.532    -159.989
  C     -161.977     -10.882    -161.168
  O     -161.336     -10.903    -159.907
  C     -161.751     -12.095    -162.080
  N     -160.395     -12.143    -162.622
  C     -159.361     -12.390    -161.726
  O     -159.515     -12.577    -160.523
  N     -158.096     -12.354    -162.245
  C     -157.762     -11.992    -163.515
  O     -156.600     -11.885    -163.886
  C     -158.895     -11.701    -164.407
  C     -160.142     -11.813    -163.939
  O     -166.982     -11.769    -165.889
  O     -167.052     -11.142    -163.372
  H     -161.539     -10.064    -159.454
  H     -166.688     -10.577    -162.669
  H     -157.336     -12.531    -161.606
  H     -158.660     -11.400    -165.419
  H     -160.997     -11.603    -164.574
  H     -161.945     -13.030    -161.553
  H     -161.639      -9.972    -161.684
  H     -163.818      -9.796    -160.949
  H     -164.702     -12.122    -162.387
  H     -165.289      -9.749    -162.902
  H     -163.688      -9.498    -163.597
  P     -164.163     -10.976    -158.492
  C     -166.240      -9.534    -159.095
  O     -164.952      -9.584    -158.520
  O     -162.870     -10.955    -157.746
  O     -165.203     -11.969    -157.785
  H     -164.999     -12.032    -156.834
  H     -166.411      -8.527    -159.487
  H     -166.988      -9.739    -158.322
  H     -166.348     -10.256    -159.909
  H     -166.991      -7.589    -166.178
  H     -167.016      -9.083    -167.084
  H     -165.537      -8.548    -166.322

 3  4  5  6  7  8  9  10  11  12  13  23  28  29  30  31  32 0
 6-311+G(2d,p)
 ****
 33  34 0
 6-311+G(2d,p)
 ****
 1  2  14  15  16  17  18  19  20  21  22  24  25  26  27 0
 3-21G
 ****
 35  36  37  38  39  40  41  42  43  44  45 0
 3-21G
 ****


