%nproc=1
%NoSave
%Mem=1900MB
#P OB98/GEN NMR

erre ene a

0 1
  C     -444.982    -231.666      55.080
  O     -446.123    -230.845      55.186
  H     -444.795    -232.131      56.054
  H     -444.114    -231.065      54.806
  H     -445.130    -232.457      54.341
  P     -446.811    -230.302      53.846
  C     -446.240    -227.830      54.324
  O     -446.068    -228.937      53.452
  C     -446.090    -226.508      53.568
  O     -444.696    -226.329      53.198
  C     -446.904    -226.509      52.261
  O     -447.307    -225.200      51.877
  C     -445.897    -227.039      51.248
  O     -446.213    -226.669      49.903
  C     -444.593    -226.427      51.770
  N     -441.094    -227.464      48.198
  C     -442.265    -226.734      48.098
  N     -442.534    -226.207      46.872
  N     -443.102    -226.556      49.083
  C     -442.737    -227.198      50.222
  C     -441.622    -227.965      50.448
  C     -440.681    -228.125      49.356
  O     -439.647    -228.778      49.391
  N     -441.602    -228.453      51.725
  C     -442.704    -227.996      52.278
  N     -443.423    -227.204      51.412
  O     -448.246    -229.785      54.341
  O     -446.942    -231.304      52.732
  H     -445.439    -226.892      49.353
  H     -448.871    -229.759      53.595
  H     -440.470    -227.539      47.419
  H     -443.029    -228.191      53.296
  H     -444.458    -225.416      51.365
  H     -445.907    -228.131      51.290
  H     -442.021    -226.482      46.050
  H     -447.777    -227.151      52.313
  H     -443.510    -225.952      46.693
  H     -446.354    -225.669      54.221
  H     -445.474    -227.919      55.106
  H     -447.210    -227.884      54.820
  P     -448.836    -224.773      52.100
  C     -449.194    -224.275      49.517
  O     -449.632    -224.880      50.718
  O     -448.756    -223.202      52.373
  O     -449.519    -225.502      53.211
  H     -449.052    -222.994      53.280
  H     -449.892    -224.489      48.735
  H     -448.232    -224.663      49.252
  H     -449.126    -223.216      49.655

 6  7  8  9  10  11  12  13  14  15  26  29  33  34 0
 6-311+G(2d,p)
 ****
 36  38  39  40  41 0
 6-311+G(2d,p)
 ****
 1  2  3  4  5  16  17  18  19  20  21  22  23  24  25 0
 3-21G
 ****
 27  28  30  31  32  35  37  42  43  44  45  46  47 0
 3-21G
 ****
 48  49 0
 3-21G
 ****


