%nproc=1
%NoSave
%Mem=1900MB
#P OB98/GEN NMR

erre ene a

0 1
  C      -14.815     -61.170      74.184
  O      -15.432     -60.688      75.367
  P      -14.582     -60.752      76.728
  C      -15.876     -62.917      77.344
  O      -14.615     -62.274      77.232
  C      -15.738     -64.273      78.040
  O      -14.839     -65.112      77.261
  C      -15.176     -64.201      79.470
  O      -15.818     -65.241      80.217
  C      -13.706     -64.511      79.248
  O      -13.012     -64.890      80.424
  C      -13.812     -65.581      78.164
  N       -9.665     -68.548      77.807
  C      -10.774     -68.640      78.575
  N      -11.842     -67.816      78.609
  C      -11.695     -66.813      77.726
  C      -10.615     -66.578      76.892
  C       -9.562     -67.504      76.952
  N       -8.425     -67.402      76.174
  N      -10.810     -65.434      76.146
  C      -11.988     -64.982      76.526
  N      -12.569     -65.793      77.461
  O      -15.525     -59.998      77.777
  O      -13.221     -60.132      76.652
  H      -13.082     -64.183      81.095
  H      -15.004     -59.447      78.390
  H      -10.809     -69.489      79.251
  H      -12.455     -64.075      76.166
  H      -14.139     -66.545      78.571
  H      -13.209     -63.615      78.858
  H      -15.361     -63.241      79.960
  H      -16.720     -64.761      78.043
  H      -16.289     -63.086      76.344
  H       -7.650     -67.996      76.432
  H       -8.270     -66.521      75.700
  H      -16.569     -62.265      77.887
  P      -16.475     -64.882      81.637
  C      -14.569     -66.143      82.813
  O      -15.232     -64.903      82.654
  O      -17.205     -66.264      81.992
  O      -17.361     -63.685      81.661
  H      -16.601     -67.022      81.899
  H      -13.694     -65.993      83.449
  H      -14.242     -66.527      81.842
  H      -15.237     -66.864      83.294
  H      -15.491     -61.067      73.361
  H      -14.561     -62.202      74.309
  H      -13.927     -60.605      73.989

 3  4  5  6  7  8  9  10  11  12  22  25  29  30  31  32 0
 6-311+G(2d,p)
 ****
 33  36  37 0
 6-311+G(2d,p)
 ****
 1  2  13  14  15  16  17  18  19  20  21  23  24  26 0
 3-21G
 ****
 27  28  34  35  38  39  40  41  42  43  44  45  46  47  48 0
 3-21G
 ****


