%nproc=1
%NoSave
%Mem=1900MB
#P OB98/GEN NMR

erre ene a

0 1
  C     -117.806     170.383     -54.703
  O     -116.427     170.461     -54.993
  H     -118.067     169.337     -54.530
  H     -118.385     170.755     -55.552
  H     -118.055     170.957     -53.807
  P     -115.713     171.893     -54.970
  C     -114.361     173.278     -53.261
  O     -114.979     172.032     -53.550
  C     -112.938     173.069     -52.731
  O     -112.990     172.196     -51.574
  C     -112.047     172.378     -53.769
  O     -110.674     172.722     -53.613
  C     -112.229     170.906     -53.441
  O     -111.150     170.091     -53.900
  C     -112.364     170.948     -51.920
  N     -113.374     165.956     -52.126
  C     -112.647     166.737     -53.003
  N     -112.117     166.101     -54.076
  N     -112.474     168.024     -52.856
  C     -113.120     168.537     -51.781
  C     -113.888     167.870     -50.853
  C     -114.041     166.439     -51.007
  O     -114.694     165.704     -50.272
  N     -114.388     168.729     -49.906
  C     -113.928     169.912     -50.262
  N     -113.133     169.845     -51.381
  O     -116.933     172.922     -54.829
  O     -114.862     172.211     -56.161
  H     -111.064     170.234     -54.860
  H     -116.672     173.804     -55.147
  H     -113.450     164.965     -52.269
  H     -114.127     170.841     -49.740
  H     -111.376     170.925     -51.443
  H     -113.135     170.552     -53.940
  H     -112.391     165.163     -54.324
  H     -112.352     172.591     -54.792
  H     -111.862     166.692     -54.870
  H     -112.520     174.023     -52.390
  H     -114.982     173.774     -52.512
  H     -114.354     173.913     -54.148
  P     -110.237     174.249     -53.823
  C     -111.256     176.468     -52.801
  O     -110.803     175.144     -52.627
  O     -111.091     174.718     -55.088
  O     -108.768     174.448     -54.032
  H     -110.502     174.931     -55.837
  H     -111.586     176.859     -51.861
  H     -112.069     176.478     -53.496
  H     -110.457     177.072     -53.178

 6  7  8  9  10  11  12  13  14  15  26  29  33  34 0
 6-311+G(2d,p)
 ****
 36  38  39  40  41 0
 6-311+G(2d,p)
 ****
 1  2  3  4  5  16  17  18  19  20  21  22  23  24  25 0
 3-21G
 ****
 27  28  30  31  32  35  37  42  43  44  45  46  47 0
 3-21G
 ****
 48  49 0
 3-21G
 ****


