%nproc=1
%NoSave
%Mem=1900MB
#P OB98/GEN NMR

erre ene a

0 1
  C      781.835     649.169     165.191
  O      782.784     649.301     164.144
  H      781.061     649.921     165.052
  H      782.315     649.343     166.159
  H      781.386     648.183     165.163
  P      784.076     648.352     164.233
  C      785.251     649.833     162.416
  O      785.282     649.311     163.742
  C      785.946     651.185     162.368
  O      785.176     652.176     163.089
  C      787.330     651.212     163.012
  O      788.341     650.636     162.210
  C      787.508     652.718     163.190
  O      787.814     653.309     161.910
  C      786.098     653.124     163.685
  N      785.974     653.114     165.139
  C      786.522     654.209     165.829
  O      787.083     655.112     165.221
  N      786.471     654.218     167.206
  C      785.886     653.240     167.845
  N      785.862     653.305     169.204
  C      785.287     652.071     167.167
  C      785.375     652.080     165.824
  O      783.897     647.353     162.992
  O      784.308     647.688     165.542
  H      788.734     653.046     161.693
  H      784.722     646.816     162.865
  H      784.835     651.271     167.734
  H      784.947     651.253     165.249
  H      785.836     654.127     163.326
  H      788.323     652.979     163.866
  H      787.305     650.744     164.010
  H      785.995     651.497     161.312
  H      786.344     654.088     169.648
  H      784.210     649.931     162.114
  H      785.570     652.534     169.791
  H      785.753     649.135     161.742
  P      789.363     649.626     162.918
  C      791.022     650.221     160.977
  O      790.833     649.992     162.373
  O      789.049     648.219     162.179
  O      789.234     649.506     164.408
  H      789.158     647.466     162.795
  H      792.050     650.450     160.789
  H      790.411     651.041     160.664
  H      790.747     649.343     160.431

 6  7  8  9  10  11  12  13  14  15  16  26  30  31  32  33  35 0
 6-311+G(2d,p)
 ****
 37  38 0
 6-311+G(2d,p)
 ****
 1  2  3  4  5  17  18  19  20  21  22  23  24  25 0
 3-21G
 ****
 27  28  29  34  36  39  40  41  42  43  44  45  46 0
 3-21G
 ****


