%nproc=1
%NoSave
%Mem=1900MB
#P OB98/GEN NMR

erre ene a

0 1
  C      -65.918       9.927     -31.718
  O      -64.729      10.403     -32.361
  P      -63.293      10.348     -31.649
  C      -62.282      12.656     -32.185
  O      -62.270      11.262     -32.481
  C      -61.422      13.452     -33.172
  O      -60.028      13.128     -33.012
  C      -61.749      13.200     -34.641
  O      -62.907      13.915     -35.025
  C      -60.457      13.655     -35.314
  O      -60.439      15.086     -35.451
  C      -59.396      13.201     -34.304
  N      -56.449      10.744     -37.684
  C      -56.840      12.033     -37.596
  N      -57.631      12.612     -36.668
  C      -58.008      11.712     -35.743
  C      -57.692      10.364     -35.703
  C      -56.872       9.877     -36.735
  N      -56.488       8.560     -36.831
  N      -58.283       9.755     -34.617
  C      -58.930      10.724     -34.001
  N      -58.795      11.924     -34.642
  O      -62.796       8.966     -31.377
  O      -63.486      11.159     -30.282
  H      -61.067      15.319     -36.158
  H      -62.862      10.825     -29.611
  H      -56.468      12.690     -38.379
  H      -59.505      10.607     -33.091
  H      -58.584      13.931     -34.215
  H      -60.328      13.229     -36.314
  H      -61.889      12.128     -34.815
  H      -61.539      14.517     -32.933
  H      -61.898      12.796     -31.169
  H      -55.927       8.282     -37.620
  H      -56.838       7.897     -36.154
  H      -63.318      13.010     -32.223
  P      -64.314      13.160     -35.147
  C      -65.672      13.642     -37.268
  O      -65.290      14.112     -35.989
  O      -64.880      12.642     -33.867
  O      -64.015      11.967     -36.174
  H      -64.602      11.215     -35.973
  H      -64.867      13.835     -37.982
  H      -66.567      14.182     -37.587
  H      -65.892      12.572     -37.243
  H      -66.755      10.060     -32.372
  H      -66.080      10.477     -30.815
  H      -65.807       8.888     -31.487

 3  4  5  6  7  8  9  10  11  12  22  25  29  30  31  32 0
 6-311+G(2d,p)
 ****
 33  36  37 0
 6-311+G(2d,p)
 ****
 1  2  13  14  15  16  17  18  19  20  21  23  24  26 0
 3-21G
 ****
 27  28  34  35  38  39  40  41  42  43  44  45  46  47  48 0
 3-21G
 ****


