%nproc=1
%NoSave
%Mem=1900MB
#P OB98/GEN NMR

erre ene a

0 1
  C     -331.560      48.094     478.190
  O     -330.349      48.274     478.913
  P     -329.288      47.074     478.893
  C     -327.550      48.703     477.835
  O     -328.206      47.434     477.763
  C     -326.057      48.507     478.067
  O     -325.462      47.734     477.005
  C     -325.260      49.806     478.118
  O     -325.334      50.446     479.385
  C     -323.849      49.292     477.864
  O     -323.301      48.750     479.084
  C     -324.093      48.172     476.843
  N     -320.870      48.065     472.947
  C     -320.847      47.340     474.127
  N     -319.790      46.524     474.316
  N     -321.785      47.416     475.036
  C     -322.780      48.280     474.710
  C     -322.905      49.043     473.566
  C     -321.858      48.966     472.582
  O     -321.785      49.611     471.535
  N     -324.057      49.793     473.597
  C     -324.615      49.482     474.736
  N     -323.862      48.611     475.478
  O     -330.100      45.856     478.239
  O     -328.728      46.709     480.228
  H     -323.797      47.925     479.257
  H     -329.653      45.013     478.419
  H     -320.116      47.965     472.279
  H     -325.569      49.885     475.088
  H     -323.452      47.298     477.036
  H     -323.167      50.077     477.523
  H     -319.006      46.472     473.687
  H     -325.551      50.476     477.295
  H     -319.723      46.039     475.205
  H     -325.925      47.948     478.999
  H     -327.980      49.281     478.657
  H     -327.728      49.249     476.900
  P     -325.506      52.050     479.377
  C     -327.899      52.121     480.372
  O     -327.084      52.320     479.238
  O     -324.920      52.461     477.934
  O     -324.805      52.750     480.503
  H     -324.582      53.379     477.965
  H     -328.874      52.597     480.193
  H     -327.456      52.582     481.265
  H     -328.054      51.056     480.551
  H     -332.169      48.968     478.291
  H     -332.085      47.247     478.579
  H     -331.337      47.932     477.156

 3  4  5  6  7  8  9  10  11  12  23  26  30  31 0
 6-311+G(2d,p)
 ****
 33  35  36  37  38 0
 6-311+G(2d,p)
 ****
 1  2  13  14  15  16  17  18  19  20  21  22  24  25 0
 3-21G
 ****
 27  28  29  32  34  39  40  41  42  43  44  45  46  47  48  49 0
 3-21G
 ****


