%nproc=1
%NoSave
%Mem=1900MB
#P OB98/GEN NMR

erre ene a

0 1
  C     -836.895      87.252    -228.122
  O     -837.559      86.151    -228.710
  H     -837.481      88.157    -228.313
  H     -835.903      87.378    -228.565
  H     -836.806      87.107    -227.044
  P     -836.798      84.740    -228.633
  C     -837.571      84.205    -226.200
  O     -836.497      84.559    -227.067
  C     -837.039      83.359    -225.043
  O     -836.411      82.154    -225.537
  C     -835.974      84.055    -224.207
  O     -836.518      84.982    -223.283
  C     -835.357      82.862    -223.505
  O     -836.232      82.414    -222.443
  C     -835.310      81.829    -224.654
  N     -834.046      81.842    -225.384
  C     -832.932      81.298    -224.727
  O     -833.038      80.845    -223.590
  N     -831.721      81.309    -225.370
  C     -831.615      81.805    -226.560
  N     -830.380      81.799    -227.144
  C     -832.757      82.375    -227.298
  C     -833.930      82.359    -226.657
  O     -835.344      85.064    -229.226
  O     -837.488      83.583    -229.282
  H     -836.155      83.066    -221.723
  H     -834.752      84.279    -229.106
  H     -832.627      82.784    -228.289
  H     -834.813      82.766    -227.133
  H     -835.485      80.814    -224.278
  H     -834.385      83.077    -223.046
  H     -835.210      84.525    -224.834
  H     -837.895      83.057    -224.428
  H     -829.605      81.461    -226.591
  H     -838.306      83.636    -226.773
  H     -830.180      82.327    -227.981
  H     -838.042      85.102    -225.802
  P     -835.499      85.994    -222.556
  C     -835.534      88.047    -224.150
  O     -834.828      86.890    -223.714
  O     -834.301      85.039    -222.102
  O     -836.080      86.757    -221.407
  H     -833.960      85.295    -221.227
  H     -834.973      88.540    -224.916
  H     -835.671      88.713    -223.324
  H     -836.489      87.758    -224.537

 6  7  8  9  10  11  12  13  14  15  16  26  30  31  32  33  35 0
 6-311+G(2d,p)
 ****
 37  38 0
 6-311+G(2d,p)
 ****
 1  2  3  4  5  17  18  19  20  21  22  23  24  25 0
 3-21G
 ****
 27  28  29  34  36  39  40  41  42  43  44  45  46 0
 3-21G
 ****


