%nproc=1
%NoSave
%Mem=1900MB
#P OB98/GEN NMR

erre ene a

0 1
  C       67.662     -77.614     157.102
  O       66.865     -78.719     157.497
  P       67.057     -80.098     156.697
  C       64.677     -79.853     155.686
  O       66.062     -80.055     155.440
  C       63.828     -80.807     154.844
  O       63.816     -80.334     153.467
  C       64.329     -82.260     154.826
  O       63.169     -83.096     154.757
  C       65.118     -82.309     153.529
  O       65.377     -83.619     153.057
  C       64.231     -81.444     152.638
  N       65.360     -82.501     147.765
  C       64.593     -83.148     148.673
  N       64.332     -82.802     149.951
  C       64.948     -81.649     150.263
  C       65.775     -80.889     149.453
  C       65.974     -81.357     148.144
  N       66.764     -80.699     147.222
  N       66.249     -79.785     150.131
  C       65.720     -79.877     151.334
  N       64.910     -80.975     151.454
  O       66.376     -81.173     157.666
  O       68.477     -80.451     156.377
  H       65.704     -84.179     153.790
  H       66.880     -82.010     157.674
  H       64.128     -84.067     148.327
  H       65.897     -79.190     152.149
  H       63.327     -81.977     152.318
  H       66.091     -81.827     153.687
  H       64.911     -82.529     155.711
  H       62.796     -80.767     155.211
  H       64.408     -78.826     155.418
  H       67.003     -81.215     146.387
  H       67.374     -79.972     147.575
  H       64.475     -79.986     156.754
  P       63.204     -84.533     155.470
  C       63.313     -85.488     153.087
  O       63.892     -85.488     154.377
  O       61.668     -84.968     155.355
  O       63.759     -84.562     156.851
  H       61.335     -84.871     154.444
  H       63.933     -86.099     152.425
  H       63.269     -84.471     152.691
  H       62.309     -85.921     153.129
  H       67.430     -76.769     157.716
  H       67.460     -77.377     156.078
  H       68.697     -77.863     157.213

 3  4  5  6  7  8  9  10  11  12  22  25  29  30  31  32 0
 6-311+G(2d,p)
 ****
 33  36  37 0
 6-311+G(2d,p)
 ****
 1  2  13  14  15  16  17  18  19  20  21  23  24  26 0
 3-21G
 ****
 27  28  34  35  38  39  40  41  42  43  44  45  46  47  48 0
 3-21G
 ****


