%nproc=1
%NoSave
%Mem=1900MB
#P OB98/GEN NMR

erre ene a

0 1
  C     -218.440     329.842      65.944
  O     -218.088     328.533      65.531
  H     -217.541     330.410      66.203
  H     -218.951     330.349      65.119
  H     -219.115     329.798      66.807
  P     -217.294     327.630      66.594
  C     -219.605     326.497      66.982
  O     -218.424     327.031      67.567
  C     -219.291     325.130      66.374
  O     -218.914     324.194      67.410
  C     -220.474     324.495      65.650
  O     -220.633     324.989      64.331
  C     -220.049     323.036      65.648
  O     -219.046     322.820      64.638
  C     -219.436     322.886      67.049
  N     -223.048     319.445      68.229
  C     -222.231     319.561      67.161
  N     -221.278     320.499      66.927
  C     -221.207     321.363      67.952
  C     -221.973     321.363      69.110
  C     -222.937     320.349      69.232
  N     -223.793     320.243      70.305
  N     -221.621     322.430      69.927
  C     -220.655     323.047      69.270
  N     -220.387     322.461      68.060
  O     -216.549     328.699      67.525
  O     -216.365     326.608      66.021
  H     -218.215     323.213      64.971
  H     -215.859     328.261      68.063
  H     -222.356     318.813      66.379
  H     -220.124     323.920      69.627
  H     -218.597     322.175      67.072
  H     -220.878     322.354      65.426
  H     -221.400     324.594      66.230
  H     -218.431     325.242      65.696
  H     -219.958     327.177      66.204
  H     -224.548     319.574      70.231
  H     -223.816     320.989      70.986
  H     -220.378     326.397      67.752
  P     -222.129     325.085      63.753
  C     -222.727     327.219      65.125
  O     -223.004     325.841      64.876
  O     -222.646     323.575      63.839
  O     -222.229     325.642      62.369
  H     -223.273     323.378      63.119
  H     -223.382     327.582      65.890
  H     -222.880     327.781      64.228
  H     -221.711     327.327      65.444

 6  7  8  9  10  11  12  13  14  15  25  28  32  33  34  35 0
 6-311+G(2d,p)
 ****
 36  39  40 0
 6-311+G(2d,p)
 ****
 1  2  3  4  5  16  17  18  19  20  21  22  23  24 0
 3-21G
 ****
 26  27  29  30  31  37  38  41  42  43  44  45  46  47 0
 3-21G
 ****
 48 0
 3-21G
 ****


