%nproc=1
%NoSave
%Mem=1900MB
#P OB98/GEN NMR

erre ene a

0 1
  C      692.252    -449.356     485.005
  O      691.033    -449.685     484.378
  H      692.615    -450.237     485.545
  H      692.095    -448.545     485.720
  H      693.008    -449.058     484.274
  P      690.448    -448.693     483.264
  C      690.211    -450.585     481.519
  O      690.797    -449.331     481.834
  C      689.492    -450.529     480.166
  O      688.301    -449.706     480.297
  C      690.366    -449.878     479.085
  O      690.049    -450.354     477.782
  C      689.991    -448.409     479.189
  O      690.259    -447.674     477.995
  C      688.505    -448.512     479.527
  N      684.987    -446.689     482.749
  C      685.015    -447.890     482.081
  N      683.972    -448.731     482.308
  N      685.969    -448.238     481.257
  C      686.906    -447.285     481.073
  C      686.974    -446.036     481.656
  C      685.932    -445.674     482.600
  O      685.842    -444.610     483.192
  N      688.061    -445.332     481.212
  C      688.663    -446.146     480.365
  N      688.005    -447.355     480.268
  O      691.427    -447.426     483.332
  O      689.014    -448.288     483.444
  H      689.770    -448.105     477.265
  H      690.989    -446.638     482.967
  H      684.247    -446.480     483.401
  H      689.567    -445.925     479.815
  H      687.897    -448.588     478.614
  H      690.578    -447.955     479.990
  H      683.138    -448.422     482.780
  H      691.435    -450.010     479.270
  H      683.823    -449.468     481.609
  H      689.151    -451.530     479.881
  H      689.508    -450.819     482.325
  H      690.971    -451.373     481.521
  P      691.253    -450.680     476.770
  C      691.973    -453.099     477.568
  O      692.261    -451.718     477.445
  O      692.094    -449.317     476.728
  O      690.814    -451.118     475.409
  H      692.068    -448.926     475.830
  H      692.791    -453.592     478.050
  H      691.825    -453.521     476.596
  H      691.085    -453.228     478.151

 6  7  8  9  10  11  12  13  14  15  26  29  33  34 0
 6-311+G(2d,p)
 ****
 36  38  39  40  41 0
 6-311+G(2d,p)
 ****
 1  2  3  4  5  16  17  18  19  20  21  22  23  24  25 0
 3-21G
 ****
 27  28  30  31  32  35  37  42  43  44  45  46  47 0
 3-21G
 ****
 48  49 0
 3-21G
 ****


