%nproc=1
%NoSave
%Mem=1900MB
#P OB98/GEN NMR

erre ene a

0 1
  C      601.644    -614.129     358.373
  O      602.443    -613.158     357.720
  H      601.470    -614.956     357.686
  H      600.675    -613.703     358.663
  H      602.162    -614.510     359.261
  P      602.778    -611.794     358.497
  C      605.250    -612.026     359.251
  O      604.343    -611.528     358.269
  C      606.620    -612.293     358.636
  O      606.510    -613.287     357.587
  C      607.261    -611.077     357.979
  O      607.772    -610.192     358.962
  C      608.310    -611.745     357.099
  O      609.450    -612.146     357.867
  C      607.523    -612.986     356.590
  N      606.920    -612.789     355.281
  C      606.878    -613.917     354.440
  O      607.368    -614.983     354.823
  N      606.312    -613.787     353.192
  C      605.795    -612.654     352.824
  N      605.246    -612.594     351.585
  C      605.778    -611.456     353.696
  C      606.356    -611.584     354.887
  O      602.338    -611.722     359.925
  O      602.081    -610.663     357.607
  H      609.161    -612.914     358.410
  H      601.189    -610.461     357.943
  H      605.316    -610.531     353.350
  H      606.385    -610.755     355.584
  H      608.184    -613.854     356.536
  H      608.671    -611.080     356.307
  H      606.542    -610.560     357.336
  H      607.264    -612.713     359.417
  H      605.262    -613.446     351.039
  H      604.824    -612.955     359.641
  H      604.676    -611.832     351.253
  H      605.345    -611.313     360.081
  P      608.303    -608.728     358.587
  C      606.275    -607.442     359.512
  O      607.654    -607.743     359.680
  O      608.098    -608.320     357.166
  O      609.845    -608.758     359.034
  H      610.387    -609.257     358.356
  H      605.956    -606.783     360.292
  H      605.705    -608.346     359.554
  H      606.126    -606.970     358.563

 6  7  8  9  10  11  12  13  14  15  16  26  30  31  32  33  35 0
 6-311+G(2d,p)
 ****
 37  38 0
 6-311+G(2d,p)
 ****
 1  2  3  4  5  17  18  19  20  21  22  23  24  25 0
 3-21G
 ****
 27  28  29  34  36  39  40  41  42  43  44  45  46 0
 3-21G
 ****


