%nproc=1
%NoSave
%Mem=1900MB
#P OB98/GEN NMR

erre ene a

0 1
  C     1229.849     575.246     -98.019
  O     1228.441     575.341     -98.101
  H     1230.214     574.700     -98.893
  H     1230.144     574.701     -97.119
  H     1230.302     576.239     -98.015
  P     1227.651     576.039     -96.897
  C     1226.254     575.207     -94.879
  O     1227.039     574.847     -96.004
  C     1225.164     574.165     -94.623
  O     1224.147     574.249     -95.641
  C     1225.659     572.720     -94.666
  O     1226.366     572.403     -93.483
  C     1224.345     571.972     -94.858
  O     1223.625     571.872     -93.614
  C     1223.611     572.920     -95.840
  N     1223.742     572.512     -97.236
  C     1222.558     572.133     -97.871
  O     1221.486     572.118     -97.269
  N     1222.625     571.735     -99.195
  C     1223.754     571.780     -99.821
  N     1223.753     571.393    -101.142
  C     1225.021     572.228     -99.209
  C     1224.936     572.556     -97.920
  O     1226.655     577.096     -97.269
  O     1228.812     576.629     -95.959
  H     1224.199     571.387     -93.002
  H     1228.989     577.557     -96.178
  H     1225.934     572.247     -99.768
  H     1225.819     572.898     -97.382
  H     1222.536     572.964     -95.594
  H     1224.491     570.968     -95.226
  H     1226.280     572.550     -95.552
  H     1224.691     574.384     -93.663
  H     1222.850     571.103    -101.521
  H     1225.807     576.173     -95.096
  H     1224.528     571.531    -101.773
  H     1226.887     575.311     -93.988
  P     1227.415     571.191     -93.429
  C     1227.229     568.909     -92.240
  O     1226.566     569.897     -93.034
  O     1228.622     571.442     -92.576
  O     1227.762     570.925     -94.961
  H     1228.391     571.601     -95.304
  H     1226.558     568.099     -92.045
  H     1227.540     569.345     -91.314
  H     1228.085     568.544     -92.767

 6  7  8  9  10  11  12  13  14  15  16  26  30  31  32  33  35 0
 6-311+G(2d,p)
 ****
 37  38 0
 6-311+G(2d,p)
 ****
 1  2  3  4  5  17  18  19  20  21  22  23  24  25 0
 3-21G
 ****
 27  28  29  34  36  39  40  41  42  43  44  45  46 0
 3-21G
 ****


