%nproc=1
%NoSave
%Mem=1900MB
#P OB98/GEN NMR

erre ene a

0 1
  C      377.241     129.001    -334.173
  O      376.607     128.745    -335.430
  P      377.285     127.962    -336.648
  C      376.353     126.417    -338.556
  O      376.118     127.472    -337.632
  C      375.090     125.996    -339.338
  O      374.114     125.445    -338.410
  C      374.433     127.217    -339.990
  O      374.908     127.690    -341.239
  C      372.936     126.909    -339.963
  O      372.480     126.310    -341.169
  C      372.803     125.932    -338.790
  N      368.411     126.550    -336.232
  C      368.637     125.921    -337.440
  N      367.548     125.428    -338.077
  N      369.819     125.791    -337.984
  C      370.803     126.401    -337.286
  C      370.701     127.079    -336.084
  C      369.395     127.157    -335.466
  O      369.143     127.702    -334.390
  N      371.916     127.580    -335.689
  C      372.745     127.235    -336.653
  N      372.119     126.509    -337.646
  O      378.321     126.961    -336.273
  O      378.008     129.138    -337.485
  H      371.512     126.162    -341.088
  H      378.813     128.741    -337.879
  H      367.483     126.594    -335.848
  H      373.805     127.475    -336.686
  H      372.221     125.042    -339.084
  H      372.366     127.834    -339.834
  H      366.604     125.595    -337.775
  H      374.568     128.062    -339.302
  H      367.675     125.155    -339.054
  H      375.312     125.194    -340.045
  H      376.743     125.569    -337.977
  H      377.141     126.701    -339.260
  P      375.871     128.949    -341.470
  C      378.056     129.293    -342.769
  O      376.799     128.636    -342.740
  O      376.905     128.872    -340.247
  O      375.182     130.282    -341.505
  H      377.370     129.729    -340.143
  H      378.456     129.246    -343.790
  H      378.753     128.771    -342.100
  H      377.963     130.341    -342.464
  H      376.570     129.541    -333.538
  H      378.126     129.581    -334.331
  H      377.501     128.073    -333.709

 3  4  5  6  7  8  9  10  11  12  23  26  30  31 0
 6-311+G(2d,p)
 ****
 33  35  36  37  38 0
 6-311+G(2d,p)
 ****
 1  2  13  14  15  16  17  18  19  20  21  22  24  25 0
 3-21G
 ****
 27  28  29  32  34  39  40  41  42  43  44  45  46  47  48  49 0
 3-21G
 ****


