%nproc=1
%NoSave
%Mem=1900MB
#P OB98/GEN NMR

erre ene a

0 1
  C     -858.964    -226.717     -85.601
  O     -860.062    -226.993     -86.456
  P     -861.540    -226.728     -85.882
  C     -862.374    -229.177     -86.354
  O     -862.096    -228.152     -85.410
  C     -861.970    -230.543     -85.789
  O     -860.632    -230.471     -85.244
  C     -862.849    -231.043     -84.647
  O     -864.080    -231.561     -85.119
  C     -861.927    -232.078     -84.003
  O     -861.972    -233.315     -84.753
  C     -860.548    -231.417     -84.154
  N     -860.077    -230.769     -82.932
  C     -859.454    -231.596     -82.003
  O     -859.292    -232.806     -82.170
  N     -859.044    -230.987     -80.838
  C     -859.243    -229.684     -80.508
  O     -858.896    -229.193     -79.442
  C     -859.944    -228.866     -81.518
  C     -860.307    -229.430     -82.665
  O     -862.327    -226.406     -87.235
  O     -861.578    -225.644     -84.854
  H     -861.916    -226.845     -88.006
  H     -861.473    -233.971     -84.224
  H     -858.570    -231.557     -80.158
  H     -860.124    -227.823     -81.290
  H     -860.836    -228.857     -83.409
  H     -859.800    -232.163     -84.461
  H     -862.208    -232.307     -82.973
  H     -863.027    -230.225     -83.946
  H     -861.960    -231.259     -86.620
  H     -861.812    -228.981     -87.278
  H     -863.449    -229.160     -86.590
  P     -865.351    -230.579     -85.002
  C     -866.052    -232.028     -82.945
  O     -865.916    -230.745     -83.509
  O     -866.425    -231.358     -85.919
  O     -865.083    -229.173     -85.432
  H     -866.415    -232.310     -85.780
  H     -866.097    -231.930     -81.861
  H     -865.208    -232.682     -83.217
  H     -866.981    -232.488     -83.295
  H     -858.050    -226.938     -86.111
  H     -859.036    -227.321     -84.721
  H     -858.977    -225.683     -85.326

 3  4  5  6  7  8  9  10  11  12  13  24  28  29  30  31  32 0
 6-311+G(2d,p)
 ****
 33  34 0
 6-311+G(2d,p)
 ****
 1  2  14  15  16  17  18  19  20  21  22  23  25  26  27 0
 3-21G
 ****
 35  36  37  38  39  40  41  42  43  44  45 0
 3-21G
 ****


