%nproc=1
%NoSave
%Mem=1900MB
#P OB98/GEN NMR

erre ene a

0 1
  C      -98.284    -676.177    -445.207
  O      -98.052    -677.203    -446.169
  P      -97.273    -676.821    -447.521
  C      -99.295    -676.862    -449.136
  O      -98.062    -677.477    -448.761
  C      -99.854    -677.525    -450.409
  O      -98.947    -677.264    -451.512
  C      -99.999    -679.059    -450.339
  O     -101.215    -679.593    -449.840
  C      -99.929    -679.425    -451.822
  O     -101.232    -679.268    -452.422
  C      -98.956    -678.406    -452.403
  N      -96.015    -681.620    -455.076
  C      -97.326    -681.324    -455.157
  N      -98.030    -680.454    -454.402
  C      -97.242    -679.848    -453.500
  C      -95.882    -680.048    -453.303
  C      -95.261    -680.995    -454.145
  N      -93.925    -681.295    -454.062
  N      -95.419    -679.249    -452.278
  C      -96.484    -678.603    -451.858
  N      -97.615    -678.911    -452.571
  O      -95.798    -677.040    -447.503
  O      -97.619    -675.267    -447.686
  H     -101.545    -678.384    -452.173
  H      -96.833    -674.804    -448.041
  H      -97.886    -681.856    -455.913
  H      -96.486    -677.895    -451.030
  H      -99.279    -678.047    -453.391
  H      -99.639    -680.472    -451.971
  H      -99.151    -679.498    -449.807
  H     -100.820    -677.081    -450.646
  H      -99.135    -675.797    -449.316
  H      -93.560    -682.022    -454.662
  H      -93.367    -680.873    -453.328
  H      -99.965    -676.944    -448.283
  P     -101.523    -679.630    -448.267
  C      -99.706    -681.445    -447.790
  O     -101.060    -681.087    -447.768
  O     -102.924    -679.268    -447.895
  O     -100.407    -678.670    -447.662
  H      -99.495    -679.015    -447.725
  H      -99.573    -682.372    -447.216
  H      -99.080    -680.663    -447.339
  H      -99.384    -681.630    -448.824
  H      -98.809    -676.586    -444.369
  H      -98.869    -675.399    -445.650
  H      -97.347    -675.777    -444.880

 3  4  5  6  7  8  9  10  11  12  22  25  29  30  31  32 0
 6-311+G(2d,p)
 ****
 33  36  37 0
 6-311+G(2d,p)
 ****
 1  2  13  14  15  16  17  18  19  20  21  23  24  26 0
 3-21G
 ****
 27  28  34  35  38  39  40  41  42  43  44  45  46  47  48 0
 3-21G
 ****


