%nproc=1
%NoSave
%Mem=1900MB
#P OB98/GEN NMR

erre ene a

0 1
  C     -142.004      97.644     463.187
  O     -142.881      97.302     464.242
  H     -142.570      98.172     462.415
  H     -141.562      96.746     462.743
  H     -141.211      98.308     463.551
  P     -142.315      96.419     465.451
  C     -141.726      93.923     465.802
  O     -142.288      94.901     464.935
  C     -142.346      92.541     465.540
  O     -143.739      92.563     465.961
  C     -142.318      92.122     464.061
  O     -142.240      90.686     464.022
  C     -143.685      92.589     463.590
  O     -144.029      92.023     462.350
  C     -144.542      92.210     464.807
  N     -145.834      92.873     464.814
  C     -146.920      92.128     464.350
  O     -146.749      90.976     463.945
  N     -148.160      92.715     464.314
  C     -148.290      93.959     464.652
  N     -149.549      94.489     464.580
  C     -147.165      94.806     465.093
  C     -145.978      94.205     465.155
  O     -142.985      96.616     466.774
  O     -140.763      96.806     465.520
  H     -143.280      92.104     461.710
  H     -140.604      97.392     466.285
  H     -147.322      95.843     465.339
  H     -145.088      94.745     465.468
  H     -144.705      91.125     464.847
  H     -143.691      93.674     463.447
  H     -141.489      92.558     463.504
  H     -141.838      91.807     466.173
  H     -150.292      93.873     464.264
  H     -141.934      94.234     466.831
  H     -149.770      95.447     464.801
  H     -140.638      93.874     465.658
  P     -140.864      89.905     463.779
  C     -139.529      88.936     461.787
  O     -140.569      89.815     462.201
  O     -140.784      88.580     464.483
  O     -139.718      90.886     464.315
  H     -138.970      90.353     464.655
  H     -139.436      88.970     460.722
  H     -139.763      87.938     462.093
  H     -138.606      89.240     462.235

 6  7  8  9  10  11  12  13  14  15  16  26  30  31  32  33  35 0
 6-311+G(2d,p)
 ****
 37  38 0
 6-311+G(2d,p)
 ****
 1  2  3  4  5  17  18  19  20  21  22  23  24  25 0
 3-21G
 ****
 27  28  29  34  36  39  40  41  42  43  44  45  46 0
 3-21G
 ****


