%nproc=1
%NoSave
%Mem=1900MB
#P OB98/GEN NMR

erre ene a

0 1
  C     -399.163     921.860     441.145
  O     -399.689     921.618     442.449
  P     -400.518     922.817     443.126
  C     -402.896     923.595     442.427
  O     -402.084     922.535     442.904
  C     -404.117     923.032     441.692
  O     -403.736     922.382     440.450
  C     -404.873     921.982     442.484
  O     -405.642     922.579     443.518
  C     -405.693     921.318     441.378
  O     -406.840     922.121     441.062
  C     -404.710     921.341     440.197
  N     -403.758     917.557     436.876
  C     -404.498     918.692     436.776
  N     -404.697     919.645     437.702
  C     -404.049     919.350     438.835
  C     -403.262     918.234     439.095
  C     -403.133     917.309     438.053
  N     -402.390     916.148     438.162
  N     -402.749     918.278     440.378
  C     -403.242     919.386     440.896
  N     -404.020     920.076     440.006
  O     -400.211     924.058     442.167
  O     -400.119     923.098     444.540
  H     -406.520     923.004     440.798
  H     -399.618     924.695     442.622
  H     -404.990     918.853     435.818
  H     -403.060     919.741     441.913
  H     -405.207     921.587     439.244
  H     -406.058     920.323     441.645
  H     -404.170     921.244     442.914
  H     -404.784     923.874     441.455
  H     -402.316     924.240     441.757
  H     -402.417     915.496     437.398
  H     -401.986     915.909     439.057
  H     -403.194     924.223     443.278
  P     -405.044     922.533     445.010
  C     -402.932     923.565     446.055
  O     -403.579     923.192     444.846
  O     -404.718     920.984     445.179
  O     -405.916     923.138     446.051
  H     -404.266     920.614     444.398
  H     -401.943     923.960     445.805
  H     -402.824     922.698     446.709
  H     -403.510     924.351     446.559
  H     -398.636     920.993     440.806
  H     -398.493     922.693     441.180
  H     -399.966     922.075     440.471

 3  4  5  6  7  8  9  10  11  12  22  25  29  30  31  32 0
 6-311+G(2d,p)
 ****
 33  36  37 0
 6-311+G(2d,p)
 ****
 1  2  13  14  15  16  17  18  19  20  21  23  24  26 0
 3-21G
 ****
 27  28  34  35  38  39  40  41  42  43  44  45  46  47  48 0
 3-21G
 ****


