%nproc=1
%NoSave
%Mem=1900MB
#P OB98/GEN NMR

erre ene a

0 1
  C     -385.676      31.424    -518.998
  O     -385.975      32.744    -518.586
  P     -385.483      33.291    -517.164
  C     -387.377      32.309    -515.748
  O     -385.990      32.256    -516.044
  C     -387.638      32.052    -514.264
  O     -389.057      32.214    -513.995
  C     -387.235      30.651    -513.772
  O     -386.783      30.801    -512.422
  C     -388.555      29.899    -513.789
  O     -388.547      28.752    -512.950
  C     -389.502      31.005    -513.341
  N     -394.014      29.319    -511.631
  C     -392.809      29.415    -511.037
  N     -391.649      29.853    -511.567
  C     -391.820      30.214    -512.849
  C     -392.980      30.144    -513.600
  C     -394.131      29.683    -512.932
  N     -395.376      29.608    -513.513
  N     -392.739      30.549    -514.899
  C     -391.459      30.860    -514.929
  N     -390.880      30.734    -513.694
  O     -385.812      34.721    -516.881
  O     -383.900      33.058    -517.185
  H     -387.762      28.218    -513.164
  H     -383.441      33.911    -517.306
  H     -392.773      29.107    -509.993
  H     -390.909      31.179    -515.800
  H     -389.461      31.174    -512.257
  H     -388.778      29.575    -514.812
  H     -386.465      30.173    -514.387
  H     -387.113      32.826    -513.683
  H     -387.880      31.539    -516.338
  H     -396.154      29.395    -512.909
  H     -395.544      30.117    -514.380
  H     -387.782      33.285    -516.036
  P     -385.821      29.695    -511.773
  C     -387.489      28.891    -510.008
  O     -386.774      28.554    -511.183
  O     -384.787      30.220    -510.832
  O     -385.155      28.987    -513.051
  H     -384.358      28.495    -512.773
  H     -386.833      28.783    -509.140
  H     -388.341      28.209    -509.900
  H     -387.861      29.920    -510.052
  H     -386.089      31.252    -519.970
  H     -386.098      30.729    -518.303
  H     -384.615      31.293    -519.033

 3  4  5  6  7  8  9  10  11  12  22  25  29  30  31  32 0
 6-311+G(2d,p)
 ****
 33  36  37 0
 6-311+G(2d,p)
 ****
 1  2  13  14  15  16  17  18  19  20  21  23  24  26 0
 3-21G
 ****
 27  28  34  35  38  39  40  41  42  43  44  45  46  47  48 0
 3-21G
 ****


