%nproc=1
%NoSave
%Mem=1900MB
#P OB98/GEN NMR

erre ene a

0 1
  C       71.991     169.588      46.600
  O       71.320     169.107      47.747
  H       72.500     168.751      46.115
  H       72.737     170.334      46.890
  H       71.278     170.026      45.895
  P       70.359     170.145      48.509
  C       68.223     169.624      47.073
  O       69.229     170.549      47.445
  C       66.845     170.120      47.515
  O       66.551     171.357      46.818
  C       65.712     169.136      47.218
  O       64.751     169.220      48.272
  C       65.102     169.681      45.937
  O       63.754     169.256      45.761
  C       65.290     171.193      46.137
  N       65.260     171.930      44.876
  C       64.012     172.391      44.447
  O       63.002     172.160      45.114
  N       63.926     173.064      43.256
  C       64.984     173.209      42.521
  N       64.828     173.863      41.339
  C       66.313     172.700      42.911
  C       66.380     172.086      44.091
  O       71.285     171.447      48.593
  O       69.852     169.663      49.826
  H       63.360     169.766      45.020
  H       71.752     171.644      47.764
  H       67.163     172.836      42.259
  H       67.317     171.689      44.461
  H       64.504     171.596      46.789
  H       65.679     169.339      45.070
  H       66.062     168.107      47.116
  H       66.887     170.360      48.584
  H       63.895     174.175      41.099
  H       68.418     168.647      47.525
  H       65.567     173.984      40.663
  H       68.254     169.509      45.986
  P       64.236     167.880      48.978
  C       66.034     167.774      50.835
  O       65.472     167.147      49.689
  O       63.368     167.000      48.145
  O       63.408     168.444      50.237
  H       62.601     167.900      50.329
  H       66.844     167.181      51.205
  H       65.285     167.867      51.594
  H       66.395     168.745      50.569

 6  7  8  9  10  11  12  13  14  15  16  26  30  31  32  33  35 0
 6-311+G(2d,p)
 ****
 37  38 0
 6-311+G(2d,p)
 ****
 1  2  3  4  5  17  18  19  20  21  22  23  24  25 0
 3-21G
 ****
 27  28  29  34  36  39  40  41  42  43  44  45  46 0
 3-21G
 ****


