%nproc=1
%NoSave
%Mem=1900MB
#P OB98/GEN NMR

erre ene a

0 1
  C       39.537     215.421    -195.582
  O       39.526     215.739    -196.960
  P       39.571     217.266    -197.436
  C       40.698     216.536    -199.626
  O       39.646     217.292    -199.037
  C       40.599     216.578    -201.148
  O       40.500     217.942    -201.620
  C       41.809     215.999    -201.866
  O       41.851     214.588    -201.782
  C       41.609     216.558    -203.269
  O       40.656     215.772    -204.000
  C       41.033     217.957    -202.967
  N       42.020     219.013    -203.136
  C       41.967     219.714    -204.345
  O       41.177     219.380    -205.227
  N       42.823     220.774    -204.523
  C       43.730     221.027    -203.632
  N       44.507     222.124    -203.836
  C       43.921     220.207    -202.419
  C       43.025     219.240    -202.226
  O       40.584     218.119    -196.748
  O       38.090     217.806    -197.146
  H       38.152     218.643    -196.648
  H       39.789     215.920    -203.572
  H       44.734     220.418    -201.742
  H       43.074     218.601    -201.351
  H       40.179     218.165    -203.622
  H       42.538     216.565    -203.850
  H       42.727     216.418    -201.435
  H       39.686     216.045    -201.445
  H       44.335     222.672    -204.669
  H       40.621     215.501    -199.281
  H       45.001     222.589    -203.078
  H       41.660     216.938    -199.292
  P       43.206     213.873    -202.256
  C       43.221     212.729    -199.934
  O       43.423     212.589    -201.326
  O       44.347     214.890    -201.776
  O       43.293     213.617    -203.726
  H       45.070     214.905    -202.430
  H       43.062     211.737    -199.502
  H       42.349     213.351    -199.717
  H       44.111     213.172    -199.479
  H       39.502     214.358    -195.461
  H       38.685     215.862    -195.107
  H       40.432     215.802    -195.135

 3  4  5  6  7  8  9  10  11  12  13  24  27  28  29  30  32 0
 6-311+G(2d,p)
 ****
 34  35 0
 6-311+G(2d,p)
 ****
 1  2  14  15  16  17  18  19  20  21  22  23  25  26 0
 3-21G
 ****
 31  33  36  37  38  39  40  41  42  43  44  45  46 0
 3-21G
 ****


