%nproc=1
%NoSave
%Mem=1900MB
#P OB98/GEN NMR

erre ene a

0 1
  C       50.976      26.920    -685.512
  O       50.991      25.621    -686.072
  H       50.095      27.462    -685.871
  H       50.911      26.835    -684.423
  H       51.888      27.467    -685.765
  P       51.386      25.495    -687.624
  C       53.382      24.393    -688.866
  O       52.910      24.985    -687.664
  C       54.512      23.409    -688.573
  O       55.661      24.159    -688.084
  C       54.167      22.343    -687.513
  O       54.758      21.096    -687.911
  C       54.875      22.850    -686.263
  O       55.185      21.810    -685.346
  C       56.104      23.526    -686.864
  N       59.753      24.194    -683.389
  C       59.583      23.249    -684.340
  N       58.597      23.176    -685.273
  C       57.788      24.247    -685.192
  C       57.841      25.288    -684.279
  C       58.879      25.225    -683.323
  N       59.030      26.145    -682.314
  N       56.797      26.168    -684.490
  C       56.110      25.654    -685.491
  N       56.664      24.490    -685.943
  O       51.491      27.035    -688.072
  O       50.425      24.730    -688.473
  H       54.353      21.388    -685.048
  H       50.611      27.351    -688.354
  H       60.313      22.448    -684.353
  H       55.194      26.061    -685.893
  H       56.892      22.805    -687.121
  H       54.236      23.589    -685.755
  H       53.087      22.205    -687.354
  H       54.814      22.931    -689.508
  H       53.756      25.179    -689.529
  H       59.734      25.955    -681.613
  H       58.325      26.855    -682.184
  H       52.547      23.879    -689.365
  P       53.828      20.064    -688.714
  C       53.157      20.023    -691.232
  O       54.205      20.148    -690.273
  O       52.381      20.739    -688.648
  O       53.820      18.684    -688.131
  H       51.686      20.060    -688.618
  H       53.565      20.100    -692.218
  H       52.440      20.803    -691.081
  H       52.679      19.073    -691.116

 6  7  8  9  10  11  12  13  14  15  25  28  32  33  34  35 0
 6-311+G(2d,p)
 ****
 36  39  40 0
 6-311+G(2d,p)
 ****
 1  2  3  4  5  16  17  18  19  20  21  22  23  24 0
 3-21G
 ****
 26  27  29  30  31  37  38  41  42  43  44  45  46  47 0
 3-21G
 ****
 48 0
 3-21G
 ****


