%nproc=1
%NoSave
%Mem=1900MB
#P OB98/GEN NMR

erre ene a

0 1
  C       44.072       7.522       0.362
  O       44.678       6.794      -0.708
  P       43.774       6.098      -1.836
  C       45.399       6.704      -3.718
  O       44.717       5.644      -3.056
  C       46.539       6.223      -4.624
  O       47.615       5.646      -3.844
  C       46.133       5.181      -5.671
  O       46.957       5.431      -6.813
  C       46.522       3.879      -4.997
  O       46.642       2.800      -5.915
  C       47.819       4.294      -4.289
  N       48.157       3.403      -3.183
  C       48.679       2.152      -3.515
  O       48.783       1.816      -4.695
  N       49.024       1.290      -2.504
  C       48.777       1.614      -1.273
  N       49.118       0.709      -0.316
  C       48.146       2.889      -0.881
  C       47.877       3.731      -1.878
  O       42.568       6.880      -2.242
  O       43.340       4.704      -1.172
  H       47.298       3.051      -6.600
  H       42.469       4.439      -1.521
  H       47.935       3.104       0.156
  H       47.418       4.694      -1.693
  H       48.659       4.300      -4.996
  H       45.760       3.603      -4.259
  H       45.074       5.220      -5.936
  H       46.952       7.108      -5.125
  H       49.524      -0.165      -0.628
  H       45.806       7.381      -2.960
  H       48.867       0.810       0.656
  H       44.675       7.279      -4.306
  P       46.360       6.002      -8.182
  C       47.684       8.190      -8.113
  O       47.471       6.973      -8.803
  O       44.999       6.607      -8.070
  O       46.359       4.752      -9.186
  H       45.763       4.940      -9.934
  H       48.593       8.660      -8.495
  H       47.800       8.012      -7.039
  H       46.839       8.862      -8.281
  H       44.834       7.908       1.007
  H       43.431       6.871       0.918
  H       43.498       8.332      -0.038

 3  4  5  6  7  8  9  10  11  12  13  23  27  28  29  30  32 0
 6-311+G(2d,p)
 ****
 34  35 0
 6-311+G(2d,p)
 ****
 1  2  14  15  16  17  18  19  20  21  22  24  25  26 0
 3-21G
 ****
 31  33  36  37  38  39  40  41  42  43  44  45  46 0
 3-21G
 ****


