%nproc=1
%NoSave
%Mem=1900MB
#P OB98/GEN NMR

erre ene a

0 1
  C     -156.820     -88.103    -589.384
  O     -157.585     -87.631    -588.290
  H     -155.791     -87.752    -589.269
  H     -157.217     -87.722    -590.330
  H     -156.820     -89.196    -589.395
  P     -159.179     -87.776    -588.364
  C     -159.709     -85.347    -589.080
  O     -159.756     -86.311    -588.029
  C     -159.358     -83.959    -588.550
  O     -160.418     -83.456    -587.702
  C     -158.110     -83.916    -587.679
  O     -156.911     -84.197    -588.357
  C     -158.273     -82.588    -586.962
  O     -157.826     -81.486    -587.750
  C     -159.813     -82.520    -586.778
  N     -160.220     -82.784    -585.409
  C     -160.184     -81.700    -584.535
  O     -159.807     -80.572    -584.872
  N     -160.553     -81.952    -583.241
  C     -160.907     -83.171    -582.740
  O     -161.215     -83.334    -581.560
  C     -160.895     -84.292    -583.692
  C     -160.555     -84.054    -584.962
  O     -159.777     -88.871    -587.527
  O     -159.479     -87.923    -589.931
  H     -157.995     -80.675    -587.229
  H     -160.395     -88.261    -590.090
  H     -160.553     -81.174    -582.601
  H     -161.162     -85.272    -583.320
  H     -160.542     -84.860    -585.684
  H     -160.182     -81.522    -587.060
  H     -157.720     -82.557    -586.020
  H     -158.210     -84.700    -586.909
  H     -159.269     -83.281    -589.409
  H     -160.699     -85.322    -589.552
  H     -158.971     -85.664    -589.831
  P     -155.632     -84.860    -587.667
  C     -153.977     -83.329    -588.997
  O     -154.369     -84.650    -588.632
  O     -155.830     -86.209    -587.043
  O     -155.328     -83.817    -586.471
  H     -154.978     -84.332    -585.717
  H     -153.123     -83.375    -589.640
  H     -153.731     -82.774    -588.116
  H     -154.783     -82.846    -589.509

 6  7  8  9  10  11  12  13  14  15  16  26  31  32  33  34  35 0
 6-311+G(2d,p)
 ****
 36  37 0
 6-311+G(2d,p)
 ****
 1  2  3  4  5  17  18  19  20  21  22  23  24  25 0
 3-21G
 ****
 27  28  29  30  38  39  40  41  42  43  44  45 0
 3-21G
 ****


