%nproc=1
%NoSave
%Mem=1900MB
#P OB98/GEN NMR

erre ene a

0 1
  C      361.567     252.024    -373.460
  O      360.439     251.231    -373.848
  P      360.313     249.794    -373.132
  C      357.768     249.951    -372.627
  O      358.801     249.274    -373.341
  C      356.410     249.262    -372.827
  O      355.912     249.462    -374.181
  C      356.448     247.743    -372.587
  O      355.182     247.382    -372.010
  C      356.527     247.177    -373.998
  O      356.147     245.801    -374.043
  C      355.603     248.146    -374.717
  N      353.619     246.394    -379.030
  C      353.279     246.137    -377.726
  N      352.208     245.322    -377.525
  N      353.909     246.621    -376.681
  C      354.936     247.451    -377.027
  C      355.367     247.804    -378.289
  C      354.663     247.226    -379.422
  O      354.927     247.430    -380.606
  N      356.415     248.695    -378.231
  C      356.658     248.813    -376.930
  N      355.747     248.138    -376.159
  O      360.382     250.157    -371.571
  O      361.370     248.823    -373.525
  H      355.268     245.741    -373.616
  H      361.274     249.984    -371.226
  H      353.100     245.976    -379.784
  H      357.447     249.413    -376.497
  H      354.536     247.938    -374.519
  H      357.561     247.265    -374.386
  H      351.646     244.949    -378.277
  H      357.268     247.405    -371.945
  H      351.909     245.146    -376.572
  H      355.687     249.729    -372.145
  H      357.685     250.983    -372.979
  H      358.033     250.007    -371.570
  P      355.182     246.772    -370.531
  C      353.013     248.020    -369.834
  O      353.660     246.776    -370.015
  O      355.875     247.941    -369.664
  O      355.927     245.485    -370.378
  H      356.457     247.544    -368.986
  H      351.942     247.872    -369.948
  H      353.349     248.760    -370.562
  H      353.218     248.393    -368.823
  H      361.552     252.951    -373.994
  H      362.469     251.496    -373.688
  H      361.523     252.217    -372.408

 3  4  5  6  7  8  9  10  11  12  23  26  30  31 0
 6-311+G(2d,p)
 ****
 33  35  36  37  38 0
 6-311+G(2d,p)
 ****
 1  2  13  14  15  16  17  18  19  20  21  22  24  25 0
 3-21G
 ****
 27  28  29  32  34  39  40  41  42  43  44  45  46  47  48  49 0
 3-21G
 ****


