%nproc=1
%NoSave
%Mem=1900MB
#P OB98/GEN NMR

erre ene a

0 1
  C      243.304     147.238      12.383
  O      243.712     146.022      11.792
  H      243.519     148.074      11.714
  H      242.226     147.199      12.563
  H      243.815     147.385      13.339
  P      245.265     145.889      11.411
  C      244.992     146.421       8.888
  O      245.519     146.841      10.139
  C      245.468     147.360       7.782
  O      244.872     148.663       8.001
  C      246.994     147.539       7.706
  O      247.472     147.165       6.411
  C      247.209     149.034       7.886
  O      248.221     149.563       7.032
  C      245.840     149.628       7.574
  N      246.991     154.591       7.473
  C      246.986     153.655       6.497
  N      246.568     152.375       6.565
  C      246.090     152.097       7.791
  C      246.009     152.951       8.877
  C      246.507     154.251       8.689
  N      246.563     155.189       9.697
  N      245.468     152.302       9.972
  C      245.269     151.066       9.565
  N      245.647     150.889       8.260
  O      245.368     144.412      10.800
  O      246.215     146.085      12.545
  H      248.265     150.521       7.210
  H      246.124     143.944      11.200
  H      247.378     153.974       5.536
  H      244.899     150.253      10.179
  H      245.700     149.797       6.500
  H      247.499     149.228       8.926
  H      247.525     146.970       8.477
  H      245.082     146.986       6.825
  H      243.897     146.443       8.926
  H      247.041     156.054       9.505
  H      246.305     154.908      10.632
  H      245.313     145.393       8.692
  P      247.846     145.614       6.200
  C      250.184     145.696       7.343
  O      248.852     145.200       7.380
  O      248.789     145.646       4.907
  O      246.662     144.726       6.011
  H      248.739     144.793       4.437
  H      250.724     145.333       8.192
  H      250.167     146.766       7.362
  H      250.664     145.363       6.446

 6  7  8  9  10  11  12  13  14  15  25  28  32  33  34  35 0
 6-311+G(2d,p)
 ****
 36  39  40 0
 6-311+G(2d,p)
 ****
 1  2  3  4  5  16  17  18  19  20  21  22  23  24 0
 3-21G
 ****
 26  27  29  30  31  37  38  41  42  43  44  45  46  47  48 0
 3-21G
 ****


