%nproc=1
%NoSave
%Mem=1900MB
#P OB98/GEN NMR

erre ene a

0 1
  C     -756.844     274.750     387.949
  O     -756.287     276.014     387.642
  H     -756.217     273.972     387.507
  H     -757.852     274.670     387.528
  H     -756.879     274.603     389.032
  P     -757.109     277.295     388.155
  C     -758.535     279.038     386.869
  O     -758.130     277.679     386.979
  C     -759.704     279.168     385.897
  O     -759.245     279.065     384.529
  C     -760.795     278.123     386.072
  O     -761.700     278.502     387.096
  C     -761.436     278.130     384.691
  O     -762.348     279.240     384.547
  C     -760.220     278.298     383.774
  N     -759.261     275.474     379.699
  C     -759.963     276.654     379.819
  N     -760.519     277.151     378.684
  N     -760.119     277.299     380.945
  C     -759.563     276.661     382.001
  C     -758.844     275.486     382.018
  C     -758.636     274.816     380.750
  O     -757.952     273.811     380.566
  N     -758.424     275.173     383.285
  C     -758.919     276.139     384.039
  N     -759.619     277.060     383.307
  O     -756.028     278.476     388.104
  O     -757.704     277.172     389.516
  H     -761.921     280.048     384.873
  H     -756.167     279.069     388.871
  H     -759.148     275.039     378.799
  H     -758.787     276.217     385.109
  H     -760.461     278.883     382.878
  H     -762.029     277.227     384.523
  H     -760.676     276.572     377.875
  H     -760.364     277.132     386.270
  H     -761.098     277.974     378.790
  H     -760.117     280.181     386.015
  H     -757.690     279.631     386.512
  H     -758.834     279.403     387.855
  P     -762.440     277.337     387.918
  C     -764.457     275.772     387.463
  O     -763.426     276.570     386.904
  O     -763.446     278.160     388.862
  O     -761.536     276.469     388.724
  H     -763.107     278.158     389.779
  H     -765.029     275.326     386.676
  H     -765.095     276.384     388.065
  H     -764.024     275.003     388.069

 6  7  8  9  10  11  12  13  14  15  26  29  33  34 0
 6-311+G(2d,p)
 ****
 36  38  39  40  41 0
 6-311+G(2d,p)
 ****
 1  2  3  4  5  16  17  18  19  20  21  22  23  24  25 0
 3-21G
 ****
 27  28  30  31  32  35  37  42  43  44  45  46  47 0
 3-21G
 ****
 48  49 0
 3-21G
 ****


