%nproc=1
%NoSave
%Mem=1900MB
#P OB98/GEN NMR

erre ene a

0 1
  C       74.440    -150.887    -313.034
  O       73.445    -150.726    -312.036
  H       74.425    -150.013    -313.690
  H       74.221    -151.778    -313.627
  H       75.433    -150.973    -312.580
  P       73.513    -151.720    -310.779
  C       73.267    -154.011    -311.983
  O       72.647    -153.017    -311.176
  C       72.352    -155.226    -312.120
  O       72.904    -156.169    -313.071
  C       72.138    -156.000    -310.821
  O       71.110    -155.413    -310.028
  C       71.692    -157.351    -311.370
  O       70.313    -157.275    -311.797
  C       72.608    -157.514    -312.591
  N       74.746    -161.925    -311.269
  C       73.407    -161.582    -311.376
  N       72.513    -162.556    -311.088
  N       72.982    -160.394    -311.738
  C       73.994    -159.519    -311.977
  C       75.352    -159.737    -311.892
  C       75.806    -161.057    -311.512
  O       76.978    -161.411    -311.416
  N       76.059    -158.611    -312.208
  C       75.134    -157.703    -312.462
  N       73.860    -158.203    -312.326
  O       72.601    -150.977    -309.691
  O       74.881    -151.992    -310.250
  H       70.134    -158.072    -312.331
  H       73.183    -150.541    -309.037
  H       75.017    -162.849    -310.976
  H       75.332    -156.679    -312.748
  H       72.116    -158.049    -313.410
  H       71.753    -158.146    -310.627
  H       72.771    -163.483    -310.785
  H       73.069    -156.125    -310.252
  H       71.527    -162.326    -311.162
  H       71.394    -154.881    -312.530
  H       74.206    -154.314    -311.509
  H       73.477    -153.587    -312.967
  P       71.352    -155.306    -308.439
  C       69.725    -157.264    -307.961
  O       70.043    -155.907    -307.723
  O       71.238    -153.731    -308.172
  O       72.655    -155.847    -307.955
  H       72.111    -153.374    -307.924
  H       68.836    -157.522    -307.424
  H       70.533    -157.883    -307.631
  H       69.565    -157.414    -309.008

 6  7  8  9  10  11  12  13  14  15  26  29  33  34 0
 6-311+G(2d,p)
 ****
 36  38  39  40  41 0
 6-311+G(2d,p)
 ****
 1  2  3  4  5  16  17  18  19  20  21  22  23  24  25 0
 3-21G
 ****
 27  28  30  31  32  35  37  42  43  44  45  46  47 0
 3-21G
 ****
 48  49 0
 3-21G
 ****


