%nproc=1
%NoSave
%Mem=1900MB
#P OB98/GEN NMR

erre ene a

0 1
  C      691.405    -747.239    -166.921
  O      691.221    -746.823    -165.560
  P      689.783    -747.027    -164.887
  C      688.859    -747.176    -162.449
  O      689.899    -746.725    -163.319
  C      689.172    -746.819    -160.995
  O      690.343    -747.510    -160.517
  C      689.458    -745.339    -160.785
  O      688.267    -744.578    -160.673
  C      690.189    -745.361    -159.454
  O      689.236    -745.478    -158.371
  C      691.018    -746.652    -159.557
  N      695.811    -745.635    -158.066
  C      694.655    -745.757    -157.375
  N      693.421    -746.008    -157.852
  C      693.440    -746.164    -159.176
  C      694.533    -746.071    -160.014
  C      695.768    -745.795    -159.411
  N      696.944    -745.672    -160.123
  N      694.164    -746.277    -161.331
  C      692.869    -746.502    -161.288
  N      692.388    -746.439    -160.010
  O      689.575    -748.614    -164.946
  O      688.676    -746.315    -165.592
  H      688.609    -744.736    -158.472
  H      688.638    -748.822    -165.084
  H      694.732    -745.624    -156.297
  H      692.248    -746.725    -162.135
  H      691.074    -747.203    -158.611
  H      690.771    -744.457    -159.259
  H      690.126    -744.951    -161.567
  H      688.316    -747.110    -160.383
  H      688.739    -748.258    -162.552
  H      697.803    -745.501    -159.621
  H      696.924    -745.808    -161.128
  H      687.910    -746.720    -162.772
  P      687.608    -744.025    -162.034
  C      685.628    -742.453    -162.589
  O      686.433    -743.044    -161.587
  O      686.866    -745.321    -162.621
  O      688.595    -743.456    -162.997
  H      686.856    -745.278    -163.605
  H      684.703    -742.083    -162.123
  H      685.368    -743.186    -163.368
  H      686.159    -741.613    -163.041
  H      692.412    -747.037    -167.223
  H      690.729    -746.702    -167.553
  H      691.212    -748.288    -167.003

 3  4  5  6  7  8  9  10  11  12  22  25  29  30  31  32 0
 6-311+G(2d,p)
 ****
 33  36  37 0
 6-311+G(2d,p)
 ****
 1  2  13  14  15  16  17  18  19  20  21  23  24  26 0
 3-21G
 ****
 27  28  34  35  38  39  40  41  42  43  44  45  46  47  48 0
 3-21G
 ****


