%nproc=1
%NoSave
%Mem=1900MB
#P OB98/GEN NMR

erre ene a

0 1
  C       33.570    -202.725     131.069
  O       33.372    -201.768     132.088
  H       32.622    -203.237     130.880
  H       34.309    -203.463     131.391
  H       33.900    -202.244     130.145
  P       34.591    -200.764     132.379
  C       35.300    -202.115     134.479
  O       35.680    -201.596     133.212
  C       36.380    -203.054     135.009
  O       36.636    -204.114     134.058
  C       37.724    -202.382     135.268
  O       37.754    -201.731     136.531
  C       38.648    -203.589     135.252
  O       38.534    -204.307     136.497
  C       38.058    -204.422     134.105
  N       40.861    -206.290     130.319
  C       40.476    -206.876     131.508
  N       40.906    -208.136     131.728
  N       39.738    -206.279     132.410
  C       39.393    -205.016     132.063
  C       39.710    -204.328     130.914
  C       40.520    -205.003     129.923
  O       40.871    -204.540     128.841
  N       39.168    -203.071     130.913
  C       38.539    -202.988     132.066
  N       38.649    -204.139     132.807
  O       33.988    -199.753     133.470
  O       35.112    -200.028     131.189
  H       37.583    -204.470     136.642
  H       34.353    -198.862     133.306
  H       41.440    -206.792     129.665
  H       37.990    -202.123     132.414
  H       38.157    -205.498     134.277
  H       39.698    -203.316     135.136
  H       41.516    -208.638     131.099
  H       37.999    -201.702     134.454
  H       40.606    -208.600     132.580
  H       35.999    -203.523     135.925
  H       34.360    -202.666     134.375
  H       35.151    -201.282     135.173
  P       38.506    -200.312     136.619
  C       40.588    -201.212     137.890
  O       40.071    -200.658     136.682
  O       38.177    -199.821     138.107
  O       38.092    -199.314     135.592
  H       38.257    -198.851     138.161
  H       41.638    -201.388     137.781
  H       40.091    -202.136     138.100
  H       40.423    -200.527     138.696

 6  7  8  9  10  11  12  13  14  15  26  29  33  34 0
 6-311+G(2d,p)
 ****
 36  38  39  40  41 0
 6-311+G(2d,p)
 ****
 1  2  3  4  5  16  17  18  19  20  21  22  23  24  25 0
 3-21G
 ****
 27  28  30  31  32  35  37  42  43  44  45  46  47 0
 3-21G
 ****
 48  49 0
 3-21G
 ****


