%nproc=1
%NoSave
%Mem=1900MB
#P OB98/GEN NMR

erre ene a

0 1
  C     -387.887    -342.215     199.770
  O     -388.426    -342.982     198.688
  P     -389.066    -342.146     197.475
  C     -391.279    -343.254     196.689
  O     -389.872    -343.172     196.538
  C     -391.924    -343.887     195.458
  O     -391.702    -343.107     194.257
  C     -391.406    -345.280     195.147
  O     -392.025    -346.228     195.992
  C     -391.793    -345.441     193.679
  O     -393.157    -345.881     193.548
  C     -391.620    -344.018     193.135
  N     -388.827    -345.349     189.112
  C     -389.975    -345.927     189.622
  N     -390.458    -346.990     188.956
  N     -390.588    -345.492     190.690
  C     -389.996    -344.416     191.264
  C     -388.870    -343.742     190.841
  C     -388.192    -344.239     189.653
  O     -387.188    -343.754     189.147
  N     -388.604    -342.662     191.634
  C     -389.488    -342.759     192.614
  N     -390.396    -343.771     192.397
  O     -387.794    -341.739     196.599
  O     -389.831    -340.946     197.925
  H     -393.741    -345.219     193.958
  H     -387.633    -340.774     196.672
  H     -388.384    -345.740     188.298
  H     -389.528    -342.113     193.476
  H     -392.444    -343.751     192.453
  H     -391.169    -346.190     193.181
  H     -390.036    -347.382     188.115
  H     -390.311    -345.308     195.259
  H     -391.310    -347.421     189.306
  H     -393.012    -343.917     195.626
  H     -391.701    -342.255     196.851
  H     -391.509    -343.838     197.593
  P     -391.113    -347.015     197.046
  C     -392.637    -349.087     196.692
  O     -391.971    -348.248     197.611
  O     -391.015    -346.011     198.284
  O     -389.748    -347.369     196.532
  H     -390.098    -345.965     198.598
  H     -392.719    -350.087     197.114
  H     -392.116    -349.150     195.728
  H     -393.658    -348.706     196.513
  H     -387.492    -342.876     200.513
  H     -388.660    -341.614     200.201
  H     -387.106    -341.582     199.404

 3  4  5  6  7  8  9  10  11  12  23  26  30  31 0
 6-311+G(2d,p)
 ****
 33  35  36  37  38 0
 6-311+G(2d,p)
 ****
 1  2  13  14  15  16  17  18  19  20  21  22  24  25 0
 3-21G
 ****
 27  28  29  32  34  39  40  41  42  43  44  45  46  47  48  49 0
 3-21G
 ****


