%nproc=1
%NoSave
%Mem=1900MB
#P OB98/GEN NMR

erre ene a

0 1
  C      -35.317    -277.045    -205.049
  O      -35.050    -278.092    -205.962
  H      -36.218    -277.295    -204.482
  H      -35.490    -276.111    -205.591
  H      -34.481    -276.923    -204.354
  P      -33.676    -278.009    -206.778
  C      -32.979    -280.508    -206.351
  O      -33.333    -279.495    -207.287
  C      -33.118    -281.885    -206.995
  O      -34.497    -282.307    -207.037
  C      -32.681    -281.933    -208.450
  O      -31.283    -281.829    -208.604
  C      -33.253    -283.280    -208.865
  O      -32.419    -284.356    -208.419
  C      -34.605    -283.282    -208.109
  N      -35.733    -282.999    -208.985
  C      -36.395    -284.118    -209.508
  O      -36.023    -285.253    -209.216
  N      -37.443    -283.917    -210.374
  C      -37.816    -282.711    -210.670
  N      -38.852    -282.578    -211.540
  C      -37.163    -281.505    -210.119
  C      -36.138    -281.720    -209.298
  O      -32.595    -277.776    -205.620
  O      -33.642    -276.991    -207.870
  H      -31.530    -284.188    -208.790
  H      -32.638    -278.437    -204.909
  H      -37.513    -280.518    -210.389
  H      -35.602    -280.890    -208.851
  H      -34.779    -284.257    -207.636
  H      -33.337    -283.373    -209.951
  H      -33.198    -281.154    -209.026
  H      -32.556    -282.604    -206.383
  H      -39.261    -283.428    -211.913
  H      -33.596    -280.437    -205.450
  H      -39.206    -281.693    -211.867
  H      -31.940    -280.331    -206.054
  P      -30.651    -280.823    -209.681
  C      -29.390    -279.353    -207.985
  O      -29.273    -280.292    -209.047
  O      -31.568    -279.747    -210.158
  O      -30.137    -281.802    -210.840
  H      -29.473    -282.454    -210.557
  H      -28.414    -279.074    -207.646
  H      -29.935    -279.794    -207.177
  H      -29.909    -278.484    -208.333

 6  7  8  9  10  11  12  13  14  15  16  26  30  31  32  33  35 0
 6-311+G(2d,p)
 ****
 37  38 0
 6-311+G(2d,p)
 ****
 1  2  3  4  5  17  18  19  20  21  22  23  24  25 0
 3-21G
 ****
 27  28  29  34  36  39  40  41  42  43  44  45  46 0
 3-21G
 ****


