%nproc=1
%NoSave
%Mem=1900MB
#P OB98/GEN NMR

erre ene a

0 1
  C     -356.248    -554.727    -894.460
  O     -356.759    -555.355    -895.630
  P     -356.382    -556.903    -895.840
  C     -354.156    -558.240    -896.180
  O     -354.787    -556.949    -896.000
  C     -353.229    -558.199    -897.390
  O     -352.296    -557.137    -897.300
  C     -352.380    -559.453    -897.550
  O     -353.138    -560.548    -898.080
  C     -351.292    -558.960    -898.460
  O     -351.694    -559.087    -899.860
  C     -351.142    -557.473    -898.060
  N     -349.903    -557.210    -897.330
  C     -348.767    -557.082    -898.130
  O     -348.831    -557.232    -899.380
  N     -347.546    -556.843    -897.500
  C     -347.511    -556.730    -896.210
  N     -346.284    -556.499    -895.660
  C     -348.697    -556.903    -895.350
  C     -349.863    -557.117    -895.960
  O     -356.916    -557.219    -897.320
  O     -356.964    -557.844    -894.820
  H     -351.805    -560.058    -900.000
  H     -357.144    -558.157    -897.440
  H     -348.588    -556.794    -894.270
  H     -350.784    -557.265    -895.410
  H     -351.168    -556.837    -898.950
  H     -350.362    -559.540    -898.340
  H     -351.952    -559.755    -896.570
  H     -353.839    -558.058    -898.310
  H     -345.504    -556.414    -896.290
  H     -354.924    -558.994    -896.330
  H     -346.143    -556.378    -894.660
  H     -353.583    -558.481    -895.260
  P     -352.790    -562.014    -897.570
  C     -350.461    -562.936    -897.010
  O     -351.259    -562.220    -897.990
  O     -353.595    -562.906    -898.650
  O     -353.175    -562.365    -896.160
  H     -353.519    -563.870    -898.390
  H     -349.497    -563.158    -897.500
  H     -350.952    -563.861    -896.740
  H     -350.323    -562.314    -896.150
  H     -356.566    -553.706    -894.435
  H     -355.179    -554.767    -894.472
  H     -356.614    -555.236    -893.593

 3  4  5  6  7  8  9  10  11  12  13  21  23  27  28  29  30  32 0
 6-311+G(2d,p)
 ****
 34  35 0
 6-311+G(2d,p)
 ****
 1  2  14  15  16  17  18  19  20  22  24  25  26 0
 3-21G
 ****
 31  33  36  37  38  39  40  41  42  43  44  45  46 0
 3-21G
 ****


