%nproc=1
%NoSave
%Mem=1900MB
#P OB98/GEN NMR

erre ene a

0 1
  C      412.870    -152.827     -92.109
  O      413.259    -151.541     -91.664
  H      411.869    -153.041     -91.719
  H      413.560    -153.593     -91.746
  H      412.832    -152.847     -93.202
  P      414.787    -151.100     -91.884
  C      415.040    -150.655     -89.347
  O      415.523    -151.378     -90.480
  C      414.765    -151.598     -88.171
  O      413.989    -152.726     -88.614
  C      416.024    -152.185     -87.553
  O      416.815    -151.250     -86.852
  C      415.480    -153.410     -86.819
  O      415.004    -153.121     -85.509
  C      414.299    -153.827     -87.728
  N      414.580    -155.053     -88.467
  C      415.104    -156.102     -87.717
  O      415.338    -156.026     -86.509
  N      415.389    -157.250     -88.405
  C      415.254    -157.424     -89.749
  O      415.566    -158.459     -90.320
  C      414.720    -156.267     -90.502
  C      414.416    -155.154     -89.829
  O      414.994    -149.709     -92.412
  O      415.380    -152.240     -92.839
  H      414.651    -153.956     -85.143
  H      416.224    -151.949     -93.260
  H      415.759    -158.024     -87.876
  H      414.603    -156.371     -91.572
  H      414.026    -154.288     -90.361
  H      413.398    -153.998     -87.121
  H      416.246    -154.185     -86.718
  H      416.650    -152.570     -88.360
  H      414.174    -151.049     -87.425
  H      414.107    -150.159     -89.647
  H      415.773    -149.891     -89.063
  P      418.285    -150.828     -87.318
  C      419.100    -151.527     -84.943
  O      419.346    -151.555     -86.354
  O      418.496    -149.386     -87.659
  O      418.445    -151.673     -88.686
  H      418.979    -151.141     -89.303
  H      419.884    -152.047     -84.434
  H      418.164    -152.001     -84.735
  H      419.068    -150.512     -84.607

 6  7  8  9  10  11  12  13  14  15  16  26  31  32  33  34  35 0
 6-311+G(2d,p)
 ****
 36  37 0
 6-311+G(2d,p)
 ****
 1  2  3  4  5  17  18  19  20  21  22  23  24  25 0
 3-21G
 ****
 27  28  29  30  38  39  40  41  42  43  44  45 0
 3-21G
 ****


