%nproc=1
%NoSave
%Mem=1900MB
#P OB98/GEN NMR

erre ene a

0 1
  C      332.646    -391.633    -171.165
  O      331.365    -391.029    -171.083
  H      333.096    -391.356    -172.118
  H      332.557    -392.716    -171.120
  H      333.288    -391.281    -170.350
  P      330.562    -391.214    -169.704
  C      331.362    -388.898    -168.817
  O      331.325    -390.299    -168.617
  C      331.975    -388.209    -167.595
  O      331.000    -388.249    -166.513
  C      333.253    -388.900    -167.094
  O      334.157    -387.916    -166.629
  C      332.757    -389.746    -165.922
  O      333.770    -390.068    -164.988
  C      331.658    -388.838    -165.357
  N      330.693    -389.590    -164.549
  C      331.070    -389.916    -163.249
  O      332.125    -389.560    -162.720
  N      330.190    -390.689    -162.545
  C      328.993    -391.168    -163.006
  O      328.248    -391.860    -162.340
  C      328.644    -390.784    -164.384
  C      329.502    -390.033    -165.078
  O      330.931    -392.707    -169.259
  O      329.088    -390.996    -169.783
  H      330.300    -393.337    -169.613
  H      334.213    -389.227    -164.727
  H      330.445    -390.930    -161.604
  H      327.717    -391.169    -164.794
  H      329.288    -389.753    -166.110
  H      332.090    -388.029    -164.776
  H      332.336    -390.687    -166.289
  H      333.732    -389.517    -167.855
  H      332.151    -387.166    -167.831
  H      330.334    -388.531    -168.977
  H      331.956    -388.678    -169.716
  P      335.307    -387.394    -167.639
  C      334.111    -385.108    -168.080
  O      334.567    -386.346    -168.614
  O      335.495    -388.697    -168.544
  O      336.520    -386.894    -166.941
  H      334.671    -389.190    -168.724
  H      333.646    -384.535    -168.855
  H      334.942    -384.563    -167.683
  H      333.402    -385.295    -167.301

 6  7  8  9  10  11  12  13  14  15  16  27  31  32  33  34  35 0
 6-311+G(2d,p)
 ****
 36  37 0
 6-311+G(2d,p)
 ****
 1  2  3  4  5  17  18  19  20  21  22  23  24  25 0
 3-21G
 ****
 26  28  29  30  38  39  40  41  42  43  44  45 0
 3-21G
 ****


