%nproc=1
%NoSave
%Mem=1900MB
#P OB98/GEN NMR

erre ene a

0 1
  C     -169.766    -140.930    -549.343
  O     -171.068    -140.901    -548.789
  H     -169.775    -141.508    -550.269
  H     -169.456    -139.904    -549.562
  H     -169.058    -141.367    -548.633
  P     -171.646    -142.286    -548.228
  C     -173.482    -143.890    -549.146
  O     -172.461    -142.943    -549.448
  C     -173.994    -144.551    -550.423
  O     -174.564    -143.518    -551.283
  C     -172.903    -145.273    -551.219
  O     -173.451    -146.476    -551.770
  C     -172.573    -144.300    -552.335
  O     -172.030    -144.949    -553.484
  C     -173.928    -143.639    -552.572
  N     -172.711    -141.188    -556.888
  C     -172.852    -142.499    -556.599
  N     -173.185    -143.075    -555.426
  C     -173.426    -142.127    -554.502
  C     -173.323    -140.752    -554.636
  C     -172.927    -140.279    -555.897
  N     -172.747    -138.946    -556.189
  N     -173.620    -140.123    -553.438
  C     -173.894    -141.101    -552.598
  N     -173.790    -142.327    -553.191
  O     -172.801    -141.794    -547.229
  O     -170.658    -143.178    -547.547
  H     -171.227    -145.435    -553.214
  H     -172.398    -141.515    -546.382
  H     -172.672    -143.179    -557.427
  H     -174.162    -140.965    -551.555
  H     -174.583    -144.238    -553.228
  H     -171.838    -143.562    -551.984
  H     -172.028    -145.516    -550.611
  H     -174.812    -145.228    -550.160
  H     -174.307    -143.378    -548.633
  H     -172.412    -138.702    -557.108
  H     -172.848    -138.271    -555.450
  H     -173.066    -144.657    -548.473
  P     -172.566    -147.812    -551.624
  C     -170.615    -148.948    -552.859
  O     -171.501    -147.857    -552.820
  O     -173.602    -148.982    -551.979
  O     -171.997    -147.991    -550.246
  H     -173.581    -149.675    -551.288
  H     -169.965    -148.850    -553.703
  H     -171.173    -149.857    -552.942
  H     -170.033    -148.967    -551.961

 6  7  8  9  10  11  12  13  14  15  25  28  32  33  34  35 0
 6-311+G(2d,p)
 ****
 36  39  40 0
 6-311+G(2d,p)
 ****
 1  2  3  4  5  16  17  18  19  20  21  22  23  24 0
 3-21G
 ****
 26  27  29  30  31  37  38  41  42  43  44  45  46  47 0
 3-21G
 ****
 48 0
 3-21G
 ****


