%nproc=1
%NoSave
%Mem=1900MB
#P OB98/GEN NMR

erre ene a

0 1
  C      -69.386    -139.038      45.715
  O      -69.058    -138.224      46.828
  P      -69.814    -138.524      48.214
  C      -70.210    -135.957      48.287
  O      -69.865    -137.132      49.012
  C      -70.625    -134.825      49.228
  O      -70.808    -133.614      48.455
  C      -71.919    -135.095      49.999
  O      -71.773    -134.542      51.307
  C      -72.957    -134.293      49.237
  O      -74.072    -133.957      50.061
  C      -72.119    -133.097      48.758
  N      -72.714    -132.435      47.601
  C      -73.800    -131.590      47.846
  O      -74.261    -131.493      48.984
  N      -74.369    -130.919      46.792
  C      -73.957    -131.156      45.585
  N      -74.549    -130.464      44.574
  C      -72.897    -132.133      45.272
  C      -72.311    -132.714      46.318
  O      -68.737    -139.379      49.030
  O      -71.116    -139.240      48.070
  H      -73.728    -133.548      50.886
  H      -69.177    -140.024      49.615
  H      -72.617    -132.320      44.245
  H      -71.508    -133.426      46.185
  H      -72.008    -132.358      49.562
  H      -73.322    -134.873      48.381
  H      -72.155    -136.161      50.072
  H      -69.800    -134.642      49.928
  H      -75.284    -129.810      44.813
  H      -71.054    -136.180      47.629
  H      -74.296    -130.583      43.603
  H      -69.363    -135.653      47.665
  P      -71.901    -135.540      52.556
  C      -74.166    -136.322      51.636
  O      -73.476    -135.774      52.741
  O      -71.576    -134.557      53.783
  O      -71.028    -136.750      52.588
  H      -71.559    -135.066      54.614
  H      -75.190    -136.554      51.941
  H      -73.681    -137.242      51.300
  H      -74.201    -135.595      50.819
  H      -68.812    -138.729      44.866
  H      -70.429    -138.939      45.496
  H      -69.165    -140.060      45.943

 3  4  5  6  7  8  9  10  11  12  13  21  23  27  28  29  30  32 0
 6-311+G(2d,p)
 ****
 34  35 0
 6-311+G(2d,p)
 ****
 1  2  14  15  16  17  18  19  20  22  24  25  26 0
 3-21G
 ****
 31  33  36  37  38  39  40  41  42  43  44  45  46 0
 3-21G
 ****


