%nproc=1
%NoSave
%Mem=1900MB
#P OB98/GEN NMR

erre ene a

0 1
  C     -236.107     415.162     255.445
  O     -235.514     415.170     254.159
  H     -236.820     415.983     255.534
  H     -236.638     414.216     255.583
  H     -235.338     415.252     256.215
  P     -234.711     416.494     253.740
  C     -235.352     418.902     253.017
  O     -235.810     417.585     253.302
  C     -236.021     419.424     251.748
  O     -235.505     418.675     250.618
  C     -237.556     419.308     251.738
  O     -238.153     420.593     251.547
  C     -237.861     418.447     250.515
  O     -239.000     418.897     249.785
  C     -236.584     418.549     249.685
  N     -237.935     416.393     245.265
  C     -237.941     417.682     245.668
  N     -237.470     418.208     246.819
  C     -236.920     417.244     247.585
  C     -236.821     415.892     247.304
  C     -237.379     415.466     246.084
  N     -237.424     414.146     245.698
  N     -236.200     415.219     248.339
  C     -235.971     416.139     249.252
  N     -236.408     417.377     248.850
  O     -234.019     416.081     252.352
  O     -233.708     416.969     254.736
  H     -239.779     418.741     250.353
  H     -233.077     416.333     252.369
  H     -238.391     418.389     244.976
  H     -235.542     415.963     250.233
  H     -236.581     419.436     249.040
  H     -238.047     417.416     250.843
  H     -237.954     418.846     252.651
  H     -235.719     420.469     251.607
  H     -234.264     418.890     252.871
  H     -237.946     413.917     244.866
  H     -237.109     413.441     246.351
  H     -235.578     419.549     253.870
  P     -238.792     421.293     252.845
  C     -241.053     421.120     254.129
  O     -240.196     420.566     253.137
  O     -239.229     422.731     252.299
  O     -237.860     421.394     254.006
  H     -239.237     423.384     253.030
  H     -241.941     420.527     254.205
  H     -241.315     422.121     253.856
  H     -240.548     421.128     255.072

 6  7  8  9  10  11  12  13  14  15  25  28  32  33  34  35 0
 6-311+G(2d,p)
 ****
 36  39  40 0
 6-311+G(2d,p)
 ****
 1  2  3  4  5  16  17  18  19  20  21  22  23  24 0
 3-21G
 ****
 26  27  29  30  31  37  38  41  42  43  44  45  46  47  48 0
 3-21G
 ****


