%nproc=1
%NoSave
%Mem=1900MB
#P OB98/GEN NMR

erre ene a

0 1
  C     -135.143     224.412     191.395
  O     -134.511     223.321     190.754
  H     -134.392     224.979     191.946
  H     -135.902     224.051     192.098
  H     -135.605     225.066     190.650
  P     -135.456     222.321     189.928
  C     -136.699     220.139     190.519
  O     -135.920     221.224     191.009
  C     -137.532     219.530     191.652
  O     -136.630     218.953     192.626
  C     -138.413     220.551     192.382
  O     -139.639     219.918     192.757
  C     -137.607     220.871     193.631
  O     -138.422     221.369     194.688
  C     -136.955     219.517     193.914
  N     -135.267     220.977     198.497
  C     -136.515     220.773     198.009
  N     -136.872     220.351     196.777
  C     -135.779     220.095     196.029
  C     -134.452     220.260     196.382
  C     -134.207     220.735     197.681
  N     -132.951     220.986     198.172
  N     -133.628     219.930     195.320
  C     -134.444     219.567     194.350
  N     -135.758     219.670     194.724
  O     -134.876     221.768     188.673
  O     -136.781     223.200     189.742
  H     -137.848     221.551     195.464
  H     -137.046     223.633     190.576
  H     -137.329     220.970     198.703
  H     -134.141     219.241     193.355
  H     -137.621     218.823     194.435
  H     -136.853     221.629     193.404
  H     -138.619     221.442     191.788
  H     -138.129     218.706     191.241
  H     -136.045     219.369     190.090
  H     -132.864     221.326     199.119
  H     -132.144     220.808     197.587
  H     -137.354     220.523     189.724
  P     -141.026     220.647     192.413
  C     -142.985     221.680     193.740
  O     -141.612     221.313     193.756
  O     -142.008     219.832     191.633
  O     -140.551     221.932     191.572
  H     -141.158     222.062     190.818
  H     -143.251     222.108     194.684
  H     -143.584     220.812     193.561
  H     -143.154     222.396     192.963

 6  7  8  9  10  11  12  13  14  15  25  28  32  33  34  35 0
 6-311+G(2d,p)
 ****
 36  39  40 0
 6-311+G(2d,p)
 ****
 1  2  3  4  5  16  17  18  19  20  21  22  23  24 0
 3-21G
 ****
 26  27  29  30  31  37  38  41  42  43  44  45  46  47 0
 3-21G
 ****
 48 0
 3-21G
 ****


