%nproc=1
%NoSave
%Mem=1900MB
#P OB98/GEN NMR

erre ene a

0 1
  C      -44.329     -35.185      28.253
  O      -43.070     -34.573      28.058
  H      -44.440     -35.496      29.295
  H      -45.114     -34.461      28.017
  H      -44.435     -36.051      27.592
  P      -41.775     -35.462      28.387
  C      -41.339     -34.298      30.673
  O      -41.684     -35.495      29.990
  C      -40.874     -34.640      32.085
  O      -41.989     -35.114      32.873
  C      -39.829     -35.748      32.136
  O      -38.518     -35.273      31.880
  C      -39.976     -36.209      33.576
  O      -39.330     -35.272      34.455
  C      -41.500     -36.154      33.764
  N      -44.247     -40.041      35.653
  C      -43.777     -38.908      36.220
  N      -43.073     -37.914      35.644
  C      -42.871     -38.167      34.341
  C      -43.294     -39.273      33.623
  C      -44.012     -40.249      34.336
  N      -44.465     -41.420      33.768
  N      -42.876     -39.189      32.309
  C      -42.230     -38.043      32.235
  N      -42.171     -37.405      33.444
  O      -40.549     -34.517      27.977
  O      -41.722     -36.805      27.736
  H      -38.368     -35.390      34.342
  H      -39.723     -35.036      27.924
  H      -43.994     -38.788      37.278
  H      -41.780     -37.639      31.337
  H      -41.790     -35.882      34.785
  H      -39.519     -37.186      33.756
  H      -40.088     -36.578      31.467
  H      -40.499     -33.722      32.556
  H      -42.219     -33.648      30.722
  H      -44.837     -42.120      34.392
  H      -44.170     -41.651      32.832
  H      -40.542     -33.784      30.128
  P      -37.647     -36.059      30.780
  C      -36.629     -37.611      32.598
  O      -37.366     -37.519      31.384
  O      -36.222     -35.339      30.873
  O      -38.212     -36.023      29.398
  H      -35.778     -35.332      30.004
  H      -36.523     -38.639      32.874
  H      -37.149     -37.086      33.372
  H      -35.661     -37.176      32.461

 6  7  8  9  10  11  12  13  14  15  25  28  32  33  34  35 0
 6-311+G(2d,p)
 ****
 36  39  40 0
 6-311+G(2d,p)
 ****
 1  2  3  4  5  16  17  18  19  20  21  22  23  24 0
 3-21G
 ****
 26  27  29  30  31  37  38  41  42  43  44  45  46  47 0
 3-21G
 ****
 48 0
 3-21G
 ****


