%nproc=1
%NoSave
%Mem=1900MB
#P OB98/GEN NMR

erre ene a

0 1
  C      167.143     250.290     134.648
  O      168.541     250.183     134.480
  H      166.940     250.931     135.510
  H      166.711     249.303     134.835
  H      166.685     250.734     133.761
  P      169.054     249.312     133.235
  C      169.441     247.247     134.768
  O      168.788     247.777     133.620
  C      169.676     245.750     134.583
  O      168.410     245.090     134.356
  C      170.545     245.397     133.381
  O      171.925     245.582     133.650
  C      170.160     243.942     133.155
  O      170.894     243.062     134.016
  C      168.674     243.928     133.537
  N      166.149     240.964     130.248
  C      166.875     240.676     131.351
  N      167.502     241.530     132.188
  C      167.315     242.801     131.792
  C      166.608     243.246     130.688
  C      166.000     242.261     129.892
  N      165.294     242.551     128.750
  N      166.683     244.621     130.589
  C      167.412     244.999     131.618
  N      167.810     243.934     132.374
  O      170.647     249.456     133.329
  O      168.531     249.735     131.903
  H      171.811     243.046     133.682
  H      170.944     250.182     132.748
  H      166.966     239.619     131.592
  H      167.685     246.023     131.851
  H      168.408     243.046     134.134
  H      170.360     243.634     132.128
  H      170.240     245.986     132.506
  H      170.109     245.349     135.507
  H      168.810     247.406     135.649
  H      170.391     247.773     134.910
  H      164.903     241.792     128.215
  H      165.268     243.506     128.417
  P      172.784     246.491     132.652
  C      174.376     244.643     131.752
  O      173.318     245.546     131.470
  O      174.101     246.823     133.498
  O      172.092     247.730     132.187
  H      174.042     247.719     133.882
  H      174.616     244.088     130.869
  H      174.073     243.969     132.526
  H      175.237     245.191     132.074

 6  7  8  9  10  11  12  13  14  15  25  28  32  33  34  35 0
 6-311+G(2d,p)
 ****
 36  37  40 0
 6-311+G(2d,p)
 ****
 1  2  3  4  5  16  17  18  19  20  21  22  23  24 0
 3-21G
 ****
 26  27  29  30  31  38  39 41  42  43  44  45  46  47  48 0
 3-21G
 ****


