%nproc=1
%NoSave
%Mem=1900MB
#P OB98/GEN NMR

erre ene a

0 1
  C       38.445    -178.435     -22.857
  O       38.186    -177.326     -22.020
  H       38.784    -178.065     -23.828
  H       37.529    -179.011     -23.006
  H       39.224    -179.071     -22.432
  P       37.806    -177.584     -20.484
  C       35.781    -178.970     -21.288
  O       36.916    -178.921     -20.433
  C       34.936    -180.215     -20.996
  O       35.765    -181.392     -21.180
  C       34.373    -180.256     -19.573
  O       33.064    -180.824     -19.602
  C       35.322    -181.189     -18.844
  O       34.703    -181.828     -17.728
  C       35.728    -182.155     -19.954
  N       38.087    -185.894     -17.505
  C       36.739    -185.618     -17.626
  N       35.890    -186.451     -16.983
  N       36.262    -184.612     -18.314
  C       37.226    -183.875     -18.922
  C       38.590    -184.045     -18.878
  C       39.101    -185.149     -18.094
  O       40.289    -185.433     -17.938
  N       39.234    -183.079     -19.610
  C       38.261    -182.327     -20.091
  N       37.023    -182.762     -19.693
  O       37.205    -176.410     -19.777
  O       39.179    -178.036     -19.807
  H       34.422    -181.117     -17.112
  H       39.555    -177.321     -19.264
  H       38.399    -186.674     -16.954
  H       38.395    -181.461     -20.726
  H       35.013    -182.974     -20.079
  H       36.189    -180.623     -18.477
  H       36.187    -187.258     -16.457
  H       34.332    -179.267     -19.115
  H       34.896    -186.289     -17.082
  H       34.133    -180.272     -21.738
  H       36.133    -179.000     -22.324
  H       35.181    -178.065     -21.144
  P       31.789    -179.850     -19.624
  C       32.351    -178.692     -17.399
  O       32.142    -178.519     -18.795
  O       30.488    -180.487     -19.272
  O       31.774    -179.322     -21.141
  H       30.847    -179.198     -21.426
  H       32.578    -177.746     -16.952
  H       33.167    -179.366     -17.241
  H       31.465    -179.094     -16.953

 6  7  8  9  10  11  12  13  14  15  26  29  33  34 0
 6-311+G(2d,p)
 ****
 36  38  39  40  41 0
 6-311+G(2d,p)
 ****
 1  2  3  4  5  16  17  18  19  20  21  22  23  24  25 0
 3-21G
 ****
 27  28  30  31  32  35  37  42  43  44  45  46  47 0
 3-21G
 ****
 48  49 0
 3-21G
 ****


