%nproc=1
%NoSave
%Mem=1900MB
#P OB98/GEN NMR

erre ene a

0 1
  C      386.848     107.732    -309.587
  O      386.774     108.841    -308.714
  H      387.847     107.296    -309.513
  H      386.676     108.041    -310.620
  H      386.115     106.973    -309.298
  P      385.440     109.728    -308.720
  C      386.384     112.112    -309.060
  O      385.845     111.170    -308.146
  C      387.835     112.454    -308.699
  O      388.701     111.380    -309.162
  C      388.343     113.755    -309.340
  O      389.320     114.316    -308.452
  C      389.001     113.232    -310.601
  O      389.824     114.203    -311.196
  C      389.670     111.967    -310.059
  N      390.066     111.047    -311.112
  C      391.396     110.619    -311.093
  O      392.167     111.028    -310.223
  N      391.830     109.766    -312.074
  C      391.024     109.422    -313.030
  N      391.519     108.584    -313.978
  C      389.628     109.898    -313.121
  C      389.217     110.697    -312.137
  O      384.245     109.110    -308.074
  O      385.176     110.019    -310.274
  H      389.287     114.938    -311.569
  H      384.439     109.465    -310.592
  H      389.004     109.599    -313.948
  H      388.208     111.098    -312.117
  H      390.557     112.218    -309.462
  H      388.245     112.967    -311.346
  H      387.544     114.479    -309.528
  H      387.926     112.487    -307.606
  H      392.484     108.292    -313.883
  H      385.765     113.012    -309.011
  H      390.994     108.266    -314.781
  H      386.345     111.713    -310.080
  P      389.333     115.863    -308.033
  C      391.750     116.564    -308.599
  O      390.811     116.275    -307.568
  O      388.263     116.237    -307.058
  O      389.138     116.665    -309.407
  H      388.663     117.499    -309.222
  H      392.691     116.824    -308.162
  H      391.392     117.383    -309.188
  H      391.872     115.703    -309.222

 6  7  8  9  10  11  12  13  14  15  16  26  30  31  32  33  35 0
 6-311+G(2d,p)
 ****
 37  38 0
 6-311+G(2d,p)
 ****
 1  2  3  4  5  17  18  19  20  21  22  23  24  25 0
 3-21G
 ****
 27  28  29  34  36  39  40  41  42  43  44  45  46 0
 3-21G
 ****


