%nproc=1
%NoSave
%Mem=1900MB
#P OB98/GEN NMR

erre ene a

0 1
  C       -4.638    -156.614     176.736
  O       -5.366    -155.416     176.564
  P       -4.643    -153.982     176.608
  C       -5.585    -154.058     179.002
  O       -5.242    -153.234     177.896
  C       -4.868    -153.607     180.278
  O       -5.250    -154.475     181.381
  C       -3.335    -153.618     180.190
  O       -2.880    -152.529     180.997
  C       -2.982    -154.947     180.832
  O       -1.625    -155.003     181.265
  C       -4.036    -155.015     181.945
  N       -4.218    -156.378     182.441
  C       -3.192    -156.895     183.240
  O       -2.163    -156.243     183.435
  N       -3.329    -158.162     183.753
  C       -4.354    -158.885     183.412
  N       -4.442    -160.129     183.958
  C       -5.391    -158.422     182.472
  C       -5.270    -157.168     182.041
  O       -4.707    -153.198     175.339
  O       -3.150    -154.325     177.073
  H       -1.049    -154.751     180.508
  H       -2.628    -154.695     176.315
  H       -6.196    -159.078     182.174
  H       -5.982    -156.737     181.347
  H       -3.748    -154.376     182.789
  H       -3.134    -155.760     180.112
  H       -2.954    -153.531     179.171
  H       -5.222    -152.598     180.521
  H       -3.715    -160.400     184.611
  H       -5.275    -155.083     178.768
  H       -5.233    -160.735     183.824
  H       -6.670    -154.062     179.144
  P       -2.020    -151.329     180.369
  C       -0.220    -151.429     182.185
  O       -1.225    -150.640     181.576
  O       -2.795    -150.384     179.506
  O       -0.865    -152.060     179.534
  H       -0.453    -151.422     178.918
  H        0.430    -150.784     182.781
  H        0.383    -151.947     181.434
  H       -0.688    -152.169     182.845
  H       -5.304    -157.449     176.672
  H       -4.164    -156.609     177.695
  H       -3.894    -156.692     175.971

 3  4  5  6  7  8  9  10  11  12  13  23  27  28  29  30  32 0
 6-311+G(2d,p)
 ****
 34  35 0
 6-311+G(2d,p)
 ****
 1  2  14  15  16  17  18  19  20  21  22  24  25  26 0
 3-21G
 ****
 31  33  36  37  38  39  40  41  42  43  44  45  46 0
 3-21G
 ****


