%nproc=1
%NoSave
%Mem=1900MB
#P OB98/GEN NMR

erre ene a

0 1
  C       87.969     -42.736    -195.937
  O       88.690     -42.592    -194.730
  H       88.414     -42.103    -196.708
  H       88.029     -43.779    -196.261
  H       86.917     -42.471    -195.796
  P       88.491     -41.224    -193.916
  C       86.717     -42.341    -192.385
  O       87.950     -41.640    -192.460
  C       85.930     -41.905    -191.151
  O       84.533     -42.268    -191.342
  C       86.406     -42.547    -189.838
  O       86.327     -41.567    -188.800
  C       85.368     -43.623    -189.581
  O       85.253     -43.959    -188.203
  C       84.115     -42.975    -190.161
  N       80.153     -45.525    -188.253
  C       80.791     -44.411    -187.840
  N       81.810     -43.763    -188.441
  C       82.113     -44.340    -189.615
  C       81.548     -45.474    -190.171
  C       80.528     -46.091    -189.425
  N       79.919     -47.264    -189.802
  N       82.170     -45.788    -191.364
  C       83.111     -44.875    -191.509
  N       83.116     -43.981    -190.476
  O       87.205     -40.586    -194.626
  O       89.656     -40.294    -193.927
  H       84.812     -43.224    -187.734
  H       87.487     -40.050    -195.391
  H       80.447     -43.989    -186.899
  H       83.827     -44.834    -192.318
  H       83.654     -42.256    -189.472
  H       85.635     -44.531    -190.136
  H       87.424     -42.951    -189.889
  H       85.969     -40.812    -191.082
  H       86.920     -43.415    -192.315
  H       79.276     -47.689    -189.152
  H       80.264     -47.755    -190.614
  H       86.137     -42.151    -193.294
  P       87.706     -41.053    -188.164
  C       88.066     -38.754    -189.331
  O       87.694     -39.451    -188.148
  O       88.785     -41.403    -189.293
  O       88.047     -41.696    -186.859
  H       89.640     -41.626    -188.885
  H       88.006     -37.700    -189.158
  H       87.403     -39.023    -190.127
  H       89.068     -39.015    -189.599

 6  7  8  9  10  11  12  13  14  15  25  28  32  33  34  35 0
 6-311+G(2d,p)
 ****
 36  39  40 0
 6-311+G(2d,p)
 ****
 1  2  3  4  5  16  17  18  19  20  21  22  23  24 0
 3-21G
 ****
 26  27  29  30  31  37  38  41  42  43  44  45  46  47 0
 3-21G
 ****
 48 0
 3-21G
 ****


