%nproc=1
%NoSave
%Mem=1900MB
#P OB98/GEN NMR

erre ene a

0 1
  C      384.062     159.017    -233.298
  O      385.333     158.595    -233.755
  H      384.143     159.285    -232.241
  H      383.330     158.212    -233.403
  H      383.731     159.901    -233.855
  P      385.478     158.085    -235.267
  C      387.471     157.753    -236.880
  O      387.046     157.820    -235.519
  C      388.954     157.365    -236.949
  O      389.712     158.394    -236.268
  C      389.244     156.018    -236.260
  O      389.949     155.098    -237.100
  C      389.907     156.428    -234.949
  O      390.777     155.461    -234.399
  C      390.579     157.763    -235.308
  N      390.803     158.639    -234.157
  C      392.124     158.941    -233.828
  O      393.116     158.549    -234.446
  N      392.291     159.751    -232.734
  C      391.298     160.262    -231.954
  O      391.511     160.988    -230.983
  C      389.927     159.893    -232.334
  C      389.744     159.106    -233.401
  O      384.808     158.924    -236.302
  O      384.870     156.599    -235.231
  H      390.277     154.617    -234.328
  H      383.970     156.607    -235.612
  H      393.242     159.986    -232.491
  H      389.114     160.273    -231.729
  H      388.743     158.814    -233.712
  H      391.544     157.586    -235.784
  H      389.117     156.613    -234.212
  H      388.312     155.486    -236.036
  H      389.269     157.357    -238.000
  H      387.311     158.735    -237.332
  H      386.869     157.009    -237.416
  P      389.457     153.616    -237.441
  C      389.906     152.067    -239.513
  O      390.403     153.033    -238.596
  O      387.989     153.449    -237.619
  O      389.899     152.772    -236.137
  H      389.227     152.068    -236.023
  H      390.678     151.801    -240.204
  H      389.075     152.477    -240.047
  H      389.591     151.196    -238.978

 6  7  8  9  10  11  12  13  14  15  16  26  31  32  33  34  35 0
 6-311+G(2d,p)
 ****
 36  37 0
 6-311+G(2d,p)
 ****
 1  2  3  4  5  17  18  19  20  21  22  23  24  25 0
 3-21G
 ****
 27  28  29  30  38  39  40  41  42  43  44  45 0
 3-21G
 ****


