%nproc=1
%NoSave
%Mem=1900MB
#P OB98/GEN NMR

erre ene a

0 1
  C      837.832    -629.974    -651.009
  O      838.081    -629.194    -652.164
  P      839.481    -629.264    -652.972
  C      838.604    -630.344    -655.156
  O      839.176    -629.177    -654.548
  C      837.396    -629.993    -656.047
  O      836.235    -629.703    -655.247
  C      837.625    -628.756    -656.929
  O      838.407    -629.079    -658.052
  C      836.170    -628.366    -657.244
  O      835.651    -629.173    -658.291
  C      835.461    -628.706    -655.918
  N      832.353    -624.833    -654.635
  C      832.221    -625.858    -655.515
  N      833.075    -626.842    -655.796
  C      834.189    -626.722    -655.054
  C      834.469    -625.745    -654.118
  C      833.485    -624.753    -653.906
  N      833.632    -623.717    -653.025
  N      835.731    -625.940    -653.552
  C      836.197    -627.031    -654.142
  N      835.294    -627.539    -655.052
  O      840.347    -630.435    -652.582
  O      840.211    -627.874    -652.661
  H      835.784    -630.111    -658.045
  H      841.187    -628.004    -652.699
  H      831.272    -625.884    -656.064
  H      837.149    -627.475    -653.937
  H      834.463    -629.122    -656.073
  H      836.076    -627.315    -657.544
  H      838.104    -627.958    -656.345
  H      837.177    -630.889    -656.663
  H      838.272    -631.027    -654.359
  H      832.896    -623.036    -652.971
  H      834.509    -623.616    -652.511
  H      839.377    -630.829    -655.751
  P      839.191    -627.915    -658.856
  C      841.544    -628.762    -658.195
  O      840.628    -628.536    -659.254
  O      839.221    -626.578    -658.178
  O      838.432    -627.836    -660.270
  H      838.494    -626.930    -660.602
  H      842.009    -627.807    -657.896
  H      842.319    -629.462    -658.531
  H      841.024    -629.198    -657.320
  H      836.848    -629.766    -650.644
  H      838.551    -629.733    -650.254
  H      837.909    -631.012    -651.256

 3  4  5  6  7  8  9  10  11  12  22  25  29  30  31  32 0
 6-311+G(2d,p)
 ****
 33  36  37 0
 6-311+G(2d,p)
 ****
 1  2  13  14  15  16  17  18  19  20  21  23  24  26 0
 3-21G
 ****
 27  28  34  35  38  39  40  41  42  43  44  45  46  47  48 0
 3-21G
 ****


