%nproc=1
%NoSave
%Mem=1900MB
#P OB98/GEN NMR

erre ene a

0 1
  C      248.978     216.570     170.043
  O      249.439     216.477     171.379
  H      249.311     217.525     169.625
  H      247.887     216.535     170.010
  H      249.395     215.761     169.440
  P      249.072     215.161     172.216
  C      251.571     214.780     172.752
  O      250.387     214.241     172.179
  C      251.890     214.067     174.060
  O      252.134     212.667     173.822
  C      253.132     214.611     174.774
  O      252.808     215.783     175.505
  C      253.469     213.426     175.664
  O      252.576     213.391     176.791
  C      253.196     212.239     174.724
  N      257.924     210.419     174.848
  C      257.089     210.790     175.886
  N      257.606     210.699     177.130
  N      255.866     211.224     175.714
  C      255.515     211.327     174.413
  C      256.256     211.006     173.301
  C      257.585     210.471     173.505
  O      258.357     210.114     172.611
  N      255.586     211.306     172.140
  C      254.423     211.767     172.553
  N      254.334     211.814     173.927
  O      247.820     214.444     171.814
  O      249.018     215.667     173.732
  H      251.669     213.386     176.427
  H      248.110     215.924     173.983
  H      258.862     210.109     175.047
  H      253.611     212.079     171.904
  H      252.833     211.358     175.264
  H      254.486     213.466     176.057
  H      258.604     210.648     177.293
  H      253.959     214.771     174.080
  H      257.026     211.015     177.901
  H      251.004     214.135     174.705
  H      251.397     215.847     172.927
  H      252.411     214.672     172.058
  P      253.185     217.236     174.937
  C      250.697     217.523     174.292
  O      252.048     217.566     173.852
  O      254.581     217.370     174.434
  O      252.830     218.239     176.129
  H      253.574     218.377     176.764
  H      250.048     217.761     173.475
  H      250.555     218.234     175.079
  H      250.471     216.542     174.653

 6  7  8  9  10  11  12  13  14  15  26  29  33  34 0
 6-311+G(2d,p)
 ****
 36  38  39  40  41 0
 6-311+G(2d,p)
 ****
 1  2  3  4  5  16  17  18  19  20  21  22  23  24  25 0
 3-21G
 ****
 27  28  30  31  32  35  37  42  43  44  45  46  47 0
 3-21G
 ****
 48  49 0
 3-21G
 ****


