%nproc=1
%NoSave
%Mem=1900MB
#P OB98/GEN NMR

erre ene a

0 1
  C        0.110       4.855     -81.623
  O        1.120       5.639     -82.261
  P        2.293       6.188     -81.311
  C        3.706       6.392     -83.473
  O        3.344       6.980     -82.233
  C        2.644       6.651     -84.547
  O        2.224       8.048     -84.539
  C        3.116       6.336     -85.971
  O        1.978       5.840     -86.688
  C        3.484       7.704     -86.513
  O        3.539       7.707     -87.937
  C        2.368       8.541     -85.891
  N        1.733      12.827     -88.480
  C        1.414      11.527     -88.821
  N        0.789      11.349     -90.003
  N        1.683      10.494     -88.065
  C        2.276      10.829     -86.892
  C        2.629      12.078     -86.437
  C        2.354      13.209     -87.297
  O        2.612      14.379     -87.042
  N        3.184      12.016     -85.180
  C        3.224      10.720     -84.917
  N        2.638       9.966     -85.896
  O        3.075       4.857     -80.891
  O        1.796       6.941     -80.120
  H        2.672       7.387     -88.267
  H        2.809       4.579     -79.996
  H        1.519      13.584     -89.107
  H        3.641      10.281     -84.027
  H        1.410       8.407     -86.410
  H        4.465       8.012     -86.130
  H        0.508      12.103     -90.608
  H        3.940       5.620     -86.027
  H        0.507      10.409     -90.257
  H        1.761       6.045     -84.309
  H        3.832       5.313     -83.352
  H        4.683       6.779     -83.781
  P        2.221       4.690     -87.775
  C        0.024       3.399     -87.331
  O        0.786       4.162     -88.244
  O        2.797       3.478     -86.897
  O        3.173       5.056     -88.867
  H        3.498       3.019     -87.395
  H       -1.034       3.513     -87.574
  H        0.185       3.720     -86.298
  H        0.296       2.344     -87.425
  H       -0.613       4.546     -82.349
  H       -0.371       5.440     -80.867
  H        0.558       3.992     -81.176

 3  4  5  6  7  8  9  10  11  12  23  26  30  31 0
 6-311+G(2d,p)
 ****
 33  35  36  37  38 0
 6-311+G(2d,p)
 ****
 1  2  13  14  15  16  17  18  19  20  21  22  24  25 0
 3-21G
 ****
 27  28  29  32  34  39  40  41  42  43  44  45  46  47  48  49 0
 3-21G
 ****


