%nproc=1
%NoSave
%Mem=1900MB
#P OB98/GEN NMR

erre ene a

0 1
  C      328.956    -363.697      11.929
  O      328.284    -364.016      13.134
  H      329.671    -364.484      11.676
  H      328.217    -363.620      11.127
  H      329.473    -362.736      12.026
  P      329.195    -364.142      14.448
  C      330.510    -362.454      15.917
  O      329.845    -362.694      14.686
  C      331.528    -361.331      15.753
  O      332.584    -361.742      14.861
  C      330.968    -360.040      15.162
  O      330.291    -359.263      16.138
  C      332.248    -359.362      14.701
  O      332.908    -358.748      15.826
  C      333.075    -360.551      14.190
  N      335.306    -359.624       9.680
  C      335.687    -359.358      10.946
  N      335.052    -359.653      12.097
  C      333.908    -360.314      11.850
  C      333.394    -360.674      10.611
  C      334.142    -360.297       9.488
  N      333.703    -360.512       8.188
  N      332.183    -361.325      10.760
  C      331.965    -361.337      12.055
  N      332.981    -360.744      12.754
  O      330.427    -365.034      13.938
  O      328.524    -364.755      15.630
  H      332.841    -359.378      16.567
  H      330.272    -365.967      14.185
  H      336.635    -358.834      11.049
  H      331.090    -361.758      12.531
  H      334.137    -360.454      14.444
  H      332.072    -358.576      13.958
  H      330.337    -360.240      14.292
  H      331.984    -361.143      16.736
  H      331.026    -363.366      16.238
  H      334.047    -359.825       7.523
  H      332.728    -360.771       8.115
  H      329.763    -362.184      16.672
  P      329.128    -358.280      15.631
  C      326.855    -358.626      14.445
  O      328.142    -359.166      14.724
  O      329.889    -357.348      14.571
  O      328.476    -357.463      16.696
  H      329.782    -356.411      14.822
  H      326.304    -359.313      13.836
  H      326.963    -357.697      13.926
  H      326.330    -358.463      15.363

 6  7  8  9  10  11  12  13  14  15  25  28  32  33  34  35 0
 6-311+G(2d,p)
 ****
 36  39  40 0
 6-311+G(2d,p)
 ****
 1  2  3  4  5  16  17  18  19  20  21  22  23  24 0
 3-21G
 ****
 26  27  29  30  31  37  38  41  42  43  44  45  46  47  48 0
 3-21G
 ****


