%nproc=1
%NoSave
%Mem=1900MB
#P OB98/GEN NMR

erre ene a

0 1
  C       61.765    -973.714     106.073
  O       62.228    -973.798     104.739
  H       61.112    -972.845     106.162
  H       62.608    -973.601     106.760
  H       61.194    -974.611     106.328
  P       63.182    -975.044     104.390
  C       64.381    -973.825     102.419
  O       63.543    -974.896     102.833
  C       64.782    -974.013     100.944
  O       65.699    -975.144     100.860
  C       63.587    -974.325     100.018
  O       63.888    -973.803      98.711
  C       63.624    -975.843      99.972
  O       62.865    -976.318      98.890
  C       65.130    -976.062      99.899
  N       65.394    -980.823      98.077
  C       65.044    -979.650      97.497
  N       65.000    -978.420      98.053
  C       65.414    -978.472      99.333
  C       65.805    -979.583     100.058
  C       65.776    -980.816      99.375
  N       66.112    -982.011      99.964
  N       66.128    -979.229     101.358
  C       65.948    -977.920     101.405
  N       65.515    -977.423     100.211
  O       62.175    -976.292     104.439
  O       64.355    -975.234     105.291
  H       63.342    -976.206      98.039
  H       62.180    -976.688     105.326
  H       64.750    -979.717      96.456
  H       66.094    -977.297     102.279
  H       65.546    -975.823      98.906
  H       63.200    -976.272     100.887
  H       62.642    -973.906     100.376
  H       65.331    -973.127     100.609
  H       65.266    -973.813     103.050
  H       63.839    -972.880     102.530
  H       66.039    -982.854      99.417
  H       66.364    -982.026     100.944
  P       63.221    -972.414      98.256
  C       62.062    -973.568      96.224
  O       62.809    -972.469      96.698
  O       64.497    -971.432      98.232
  O       62.167    -971.870      99.164
  H       64.270    -970.590      98.673
  H       61.876    -973.448      95.177
  H       61.131    -973.619      96.749
  H       62.613    -974.471      96.387

 6  7  8  9  10  11  12  13  14  15  25  28  32  33  34  35 0
 6-311+G(2d,p)
 ****
 36  37  40 0
 6-311+G(2d,p)
 ****
 1  2  3  4  5  16  17  18  19  20  21  22  23  24 0
 3-21G
 ****
 26  27  29  30  31  38  39 41  42  43  44  45  46  47  48 0
 3-21G
 ****


