%nproc=1
%NoSave
%Mem=1900MB
#P OB98/GEN NMR

erre ene a

0 1
  C     -328.918     394.206     180.170
  O     -328.506     392.994     179.557
  H     -328.665     394.161     181.231
  H     -329.999     394.321     180.071
  H     -328.412     395.069     179.728
  P     -328.490     392.911     177.953
  C     -330.957     392.159     177.999
  O     -329.646     391.864     177.552
  C     -331.981     391.221     177.336
  O     -331.988     391.463     175.909
  C     -331.685     389.734     177.560
  O     -332.948     389.040     177.577
  C     -330.923     389.379     176.297
  O     -330.881     387.989     176.068
  C     -331.687     390.217     175.258
  N     -330.917     390.398     174.025
  C     -330.889     389.318     173.138
  O     -331.436     388.239     173.380
  N     -330.175     389.497     171.998
  C     -329.443     390.611     171.671
  O     -328.786     390.706     170.645
  C     -329.480     391.697     172.655
  C     -330.206     391.550     173.775
  O     -327.161     392.641     177.336
  O     -329.103     394.311     177.475
  H     -330.414     387.535     176.798
  H     -328.723     394.558     176.609
  H     -330.152     388.730     171.348
  H     -328.903     392.590     172.438
  H     -330.254     392.340     174.508
  H     -332.635     389.728     175.001
  H     -329.877     389.727     176.368
  H     -331.125     389.535     178.474
  H     -332.981     391.482     177.709
  H     -331.184     393.199     177.735
  H     -330.995     392.053     179.086
  P     -333.748     388.777     178.940
  C     -332.517     386.539     179.236
  O     -333.781     387.194     179.225
  O     -335.097     389.443     178.990
  O     -332.805     389.351     180.100
  H     -333.336     389.641     180.858
  H     -332.657     385.497     179.434
  H     -331.900     386.967     179.999
  H     -332.044     386.661     178.284

 6  7  8  9  10  11  12  13  14  15  16  26  31  32  33  34  35 0
 6-311+G(2d,p)
 ****
 36  37 0
 6-311+G(2d,p)
 ****
 1  2  3  4  5  17  18  19  20  21  22  23  24  25 0
 3-21G
 ****
 27  28  29  30  38  39  40  41  42  43  44  45 0
 3-21G
 ****


