%nproc=1
%NoSave
%Mem=1900MB
#P OB98/GEN NMR

erre ene a

0 1
  C     -161.548     342.882     -24.770
  O     -161.610     342.765     -23.344
  P     -161.049     341.396     -22.708
  C     -161.842     338.916     -22.629
  O     -162.158     340.263     -22.960
  C     -163.112     338.101     -22.401
  O     -163.839     338.581     -21.251
  C     -164.110     338.159     -23.551
  O     -163.743     337.280     -24.607
  C     -165.381     337.676     -22.864
  O     -165.394     336.235     -22.818
  C     -165.239     338.258     -21.448
  N     -169.885     340.291     -21.562
  C     -169.472     339.000     -21.844
  N     -170.444     338.122     -22.178
  N     -168.228     338.609     -21.800
  C     -167.368     339.586     -21.422
  C     -167.651     340.901     -21.121
  C     -169.034     341.329     -21.205
  O     -169.444     342.470     -20.996
  N     -166.517     341.593     -20.774
  C     -165.555     340.692     -20.835
  N     -166.018     339.463     -21.239
  O     -161.151     341.666     -21.133
  O     -159.660     341.054     -23.130
  H     -166.189     335.975     -22.317
  H     -160.486     341.133     -20.658
  H     -170.857     340.540     -21.621
  H     -164.515     340.877     -20.595
  H     -165.512     337.528     -20.677
  H     -166.289     337.985     -23.389
  H     -171.430     338.335     -22.159
  H     -164.245     339.191     -23.902
  H     -170.165     337.162     -22.350
  H     -162.819     337.058     -22.211
  H     -161.225     338.889     -21.727
  H     -161.240     338.484     -23.437
  P     -163.588     337.923     -26.071
  C     -165.278     339.032     -27.698
  O     -165.085     338.186     -26.586
  O     -163.085     336.688     -26.955
  O     -162.653     339.086     -26.141
  H     -162.544     337.009     -27.703
  H     -164.547     338.829     -28.485
  H     -165.197     340.080     -27.386
  H     -166.282     338.858     -28.103
  H     -161.947     343.829     -25.068
  H     -162.121     342.097     -25.218
  H     -160.530     342.808     -25.090

 3  4  5  6  7  8  9  10  11  12  23  26  30  31  33  0
 6-311+G(2d,p)
 ****
 35  36  37  38 0
 6-311+G(2d,p)
 ****
 1  2  13  14  15  16  17  18  19  20  21  22  24  25  27  28  29 0
 3-21G
 ****
 32  34  39  40  41  42  43  44  45  46  47  48  49 0
 3-21G
 ****


