%nproc=1
%NoSave
%Mem=1900MB
#P OB98/GEN NMR

erre ene a

0 1
  C     -124.225    -168.547    -112.662
  O     -123.202    -168.857    -113.586
  H     -124.144    -167.505    -112.343
  H     -125.194    -168.691    -113.148
  H     -124.165    -169.209    -111.794
  P     -121.690    -168.720    -113.066
  C     -119.468    -169.965    -113.580
  O     -120.846    -169.811    -113.887
  C     -118.928    -171.218    -114.258
  O     -119.578    -172.394    -113.724
  C     -119.161    -171.266    -115.765
  O     -118.199    -170.509    -116.479
  C     -118.995    -172.753    -116.024
  O     -117.597    -173.095    -116.023
  C     -119.694    -173.363    -114.802
  N     -122.994    -176.213    -117.478
  C     -121.648    -176.133    -117.501
  N     -120.842    -175.345    -116.760
  C     -121.564    -174.581    -115.925
  C     -122.943    -174.548    -115.795
  C     -123.673    -175.421    -116.618
  N     -125.049    -175.495    -116.608
  N     -123.322    -173.608    -114.855
  C     -122.189    -173.109    -114.405
  N     -121.099    -173.659    -115.027
  O     -121.742    -169.338    -111.590
  O     -121.119    -167.342    -113.089
  H     -117.537    -174.022    -116.320
  H     -120.982    -169.022    -111.068
  H     -121.150    -176.788    -118.212
  H     -122.104    -172.356    -113.633
  H     -119.216    -174.290    -114.464
  H     -119.402    -173.067    -116.987
  H     -120.183    -170.967    -116.024
  H     -117.858    -171.296    -114.027
  H     -119.350    -170.060    -112.496
  H     -125.478    -176.012    -117.360
  H     -125.563    -174.804    -116.081
  H     -118.922    -169.080    -113.921
  P     -118.414    -170.352    -118.062
  C     -117.244    -168.985    -119.940
  O     -117.306    -169.304    -118.552
  O     -119.780    -169.528    -118.165
  O     -118.470    -171.641    -118.815
  H     -120.233    -169.711    -119.009
  H     -116.460    -168.277    -120.109
  H     -118.177    -168.564    -120.251
  H     -117.049    -169.874    -120.502

 6  7  8  9  10  11  12  13  14  15  25  28  32  33  34  35 0
 6-311+G(2d,p)
 ****
 36  39  40 0
 6-311+G(2d,p)
 ****
 1  2  3  4  5  16  17  18  19  20  21  22  23  24 0
 3-21G
 ****
 26  27  29  30  31  37  38  41  42  43  44  45  46  47 0
 3-21G
 ****
 48 0
 3-21G
 ****


