%nproc=1
%NoSave
%Mem=1900MB
#P OB98/GEN NMR

erre ene a

0 1
  C       79.260     860.193    -469.381
  O       78.463     860.568    -468.280
  H       78.931     860.757    -470.257
  H       79.130     859.129    -469.589
  H       80.314     860.410    -469.203
  P       78.908     860.117    -466.808
  C       80.316     862.272    -466.898
  O       80.248     860.925    -466.462
  C       81.101     863.137    -465.904
  O       80.285     863.340    -464.710
  C       82.420     862.511    -465.454
  O       83.329     863.578    -465.166
  C       82.023     861.815    -464.165
  O       83.136     861.504    -463.361
  C       81.035     862.842    -463.585
  N       80.175     862.272    -462.553
  C       80.736     862.119    -461.289
  O       81.919     862.410    -461.030
  N       79.927     861.580    -460.329
  C       78.652     861.125    -460.515
  O       77.992     860.620    -459.620
  C       78.123     861.278    -461.888
  C       78.899     861.834    -462.821
  O       78.994     858.636    -466.584
  O       77.831     860.792    -465.841
  H       83.383     862.276    -462.807
  H       77.699     860.248    -465.044
  H       80.327     861.467    -459.403
  H       77.117     860.916    -462.080
  H       78.532     861.960    -463.836
  H       81.578     863.684    -463.140
  H       81.508     860.873    -464.380
  H       82.854     861.827    -466.182
  H       81.259     864.132    -466.346
  H       79.282     862.648    -466.982
  H       80.792     862.325    -467.888
  P       84.513     863.995    -466.183
  C       83.215     866.198    -466.479
  O       83.996     865.189    -467.111
  O       85.102     862.836    -466.928
  O       85.615     864.705    -465.257
  H       86.504     864.581    -465.645
  H       82.932     866.935    -467.201
  H       83.790     866.660    -465.704
  H       82.336     865.757    -466.057

 6  7  8  9  10  11  12  13  14  15  16  26  31  32  33  34  35 0
 6-311+G(2d,p)
 ****
 36  37 0
 6-311+G(2d,p)
 ****
 1  2  3  4  5  17  18  19  20  21  22  23  24  25 0
 3-21G
 ****
 27  28  29  30  38  39  40  41  42  43  44  45 0
 3-21G
 ****


