%nproc=1
%NoSave
%Mem=1900MB
#P OB98/GEN NMR

erre ene a

0 1
  C      108.310    -984.619      70.576
  O      108.737    -984.740      71.912
  H      107.852    -983.635      70.440
  H      107.562    -985.388      70.359
  H      109.149    -984.716      69.877
  P      109.824    -985.854      72.278
  C      111.467    -984.406      73.651
  O      111.251    -985.130      72.446
  C      112.937    -984.014      73.818
  O      113.347    -983.193      72.708
  C      113.179    -983.191      75.092
  O      113.418    -983.969      76.253
  C      114.413    -982.381      74.705
  O      115.621    -983.095      75.017
  C      114.264    -982.197      73.192
  N      115.144    -977.162      73.266
  C      115.813    -978.169      73.946
  N      116.802    -977.772      74.769
  N      115.508    -979.436      73.833
  C      114.427    -979.667      73.054
  C      113.680    -978.753      72.341
  C      114.065    -977.358      72.416
  O      113.524    -976.431      71.820
  N      112.630    -979.354      71.685
  C      112.696    -980.609      72.072
  N      113.814    -980.866      72.831
  O      110.005    -986.661      70.902
  O      109.447    -986.787      73.389
  H      116.376    -982.584      74.665
  H      110.225    -987.589      71.095
  H      115.448    -976.212      73.375
  H      111.990    -981.387      71.791
  H      115.218    -982.362      72.679
  H      114.453    -981.443      75.267
  H      117.022    -976.807      74.963
  H      112.352    -982.492      75.264
  H      117.186    -978.457      75.426
  H      113.555    -984.917      73.804
  H      111.159    -985.065      74.465
  H      110.824    -983.517      73.678
  P      112.205    -984.480      77.161
  C      112.711    -987.048      76.926
  O      111.830    -985.965      76.715
  O      110.966    -983.612      76.630
  O      112.400    -984.337      78.634
  H      110.802    -982.857      77.222
  H      112.266    -987.947      76.555
  H      112.904    -987.152      77.973
  H      113.630    -986.866      76.410

 6  7  8  9  10  11  12  13  14  15  26  29  33  34 0
 6-311+G(2d,p)
 ****
 36  38  39  40  41 0
 6-311+G(2d,p)
 ****
 1  2  3  4  5  16  17  18  19  20  21  22  23  24  25 0
 3-21G
 ****
 27  28  30  31  32  35  37  42  43  44  45  46  47 0
 3-21G
 ****
 48  49 0
 3-21G
 ****


