%nproc=1
%NoSave
%Mem=1900MB
#P OB98/GEN NMR

erre ene a

0 1
  C      421.214     758.116    -267.605
  O      421.688     759.441    -267.581
  P      420.827     760.621    -266.925
  C      420.793     762.051    -269.147
  O      421.074     761.959    -267.755
  C      421.543     763.253    -269.735
  O      421.054     764.484    -269.136
  C      423.027     763.152    -269.467
  O      423.697     762.554    -270.595
  C      423.419     764.597    -269.244
  O      423.590     765.284    -270.517
  C      422.174     765.152    -268.499
  N      422.088     764.915    -267.033
  C      422.868     765.680    -266.180
  O      423.613     766.584    -266.543
  N      422.749     765.353    -264.835
  C      421.924     764.390    -264.321
  O      422.030     763.953    -263.183
  C      420.954     763.822    -265.254
  C      421.085     764.079    -266.547
  O      421.576     760.894    -265.540
  O      419.383     760.317    -266.725
  H      424.010     766.131    -270.326
  H      421.133     760.451    -264.807
  H      423.412     765.816    -264.223
  H      420.198     763.164    -264.852
  H      420.400     763.645    -267.264
  H      422.069     766.230    -268.672
  H      424.377     764.665    -268.733
  H      423.222     762.592    -268.554
  H      421.323     763.297    -270.815
  H      419.703     762.171    -269.274
  H      421.065     761.133    -269.648
  P      424.158     761.022    -270.493
  C      426.560     761.567    -271.218
  O      425.364     760.891    -271.543
  O      423.059     760.011    -270.638
  O      424.854     760.939    -269.061
  H      424.232     760.568    -268.407
  H      427.343     761.264    -271.918
  H      426.851     761.335    -270.189
  H      426.401     762.650    -271.323
  H      421.935     757.488    -268.084
  H      420.292     758.077    -268.146
  H      421.055     757.776    -266.603

 3  4  5  6  7  8  9  10  11  12  13  23  28  29  30  31  32 0
 6-311+G(2d,p)
 ****
 33  34 0
 6-311+G(2d,p)
 ****
 1  2  14  15  16  17  18  19  20  21  22  24  25  26  27 0
 3-21G
 ****
 35  36  37  38  39  40  41  42  43  44  45 0
 3-21G
 ****


