%nproc=1
%NoSave
%Mem=1900MB
#P OB98/GEN NMR

erre ene a

0 1
  C      -33.382     132.634     146.615
  O      -33.198     131.498     145.797
  H      -32.619     132.630     147.396
  H      -34.369     132.592     147.086
  H      -33.290     133.557     146.038
  P      -33.938     131.439     144.381
  C      -36.224     130.612     145.249
  O      -35.502     131.678     144.653
  C      -37.736     130.825     145.116
  O      -38.137     131.963     145.919
  C      -38.103     131.152     143.667
  O      -39.426     130.733     143.340
  C      -38.041     132.670     143.637
  O      -38.797     133.240     142.572
  C      -38.567     133.011     145.030
  N      -37.802     137.952     144.050
  C      -38.191     136.942     143.194
  N      -38.381     137.290     141.901
  N      -38.362     135.701     143.568
  C      -38.065     135.484     144.871
  C      -37.646     136.398     145.811
  C      -37.499     137.776     145.394
  O      -37.138     138.710     146.105
  N      -37.424     135.802     147.028
  C      -37.701     134.530     146.823
  N      -38.108     134.290     145.534
  O      -33.889     129.886     143.990
  O      -33.347     132.294     143.302
  H      -38.316     133.063     141.742
  H      -33.946     129.776     143.025
  H      -37.699     138.894     143.713
  H      -37.629     133.749     147.570
  H      -39.664     133.030     145.036
  H      -36.999     132.968     143.489
  H      -38.093     138.184     141.536
  H      -37.404     130.708     142.956
  H      -38.375     136.528     141.218
  H      -38.277     129.955     145.504
  H      -35.942     130.582     146.308
  H      -35.929     129.659     144.804
  P      -39.590     129.347     142.551
  C      -40.256     130.230     140.173
  O      -39.281     129.626     141.003
  O      -41.164     129.074     142.596
  O      -38.806     128.223     143.142
  H      -41.364     128.368     143.238
  H      -39.867     130.332     139.182
  H      -40.505     131.196     140.560
  H      -41.133     129.618     140.150

 6  7  8  9  10  11  12  13  14  15  26  29  33  34 0
 6-311+G(2d,p)
 ****
 36  38  39  40  41 0
 6-311+G(2d,p)
 ****
 1  2  3  4  5  16  17  18  19  20  21  22  23  24  25 0
 3-21G
 ****
 27  28  30  31  32  35  37  42  43  44  45  46  47 0
 3-21G
 ****
 48  49 0
 3-21G
 ****


