%nproc=1
%NoSave
%Mem=1900MB
#P OB98/GEN NMR

erre ene a

0 1
  C      367.557     111.680    -243.480
  O      368.095     112.113    -242.248
  H      366.897     112.448    -243.891
  H      368.379     111.507    -244.180
  H      367.001     110.742    -243.351
  P      367.071     112.255    -241.020
  C      366.088     114.646    -241.297
  O      365.918     113.254    -241.528
  C      364.869     115.424    -241.798
  O      364.745     115.224    -243.234
  C      363.550     114.978    -241.151
  O      362.733     116.129    -240.926
  C      362.918     114.094    -242.215
  O      361.502     114.029    -242.091
  C      363.407     114.763    -243.496
  N      360.601     112.970    -247.375
  C      360.380     113.954    -246.478
  N      361.184     114.375    -245.478
  C      362.344     113.693    -245.484
  C      362.714     112.661    -246.329
  C      361.777     112.292    -247.309
  N      361.976     111.260    -248.201
  N      363.969     112.184    -245.998
  C      364.347     112.922    -244.968
  N      363.398     113.844    -244.620
  O      367.904     113.140    -239.975
  O      366.597     110.974    -240.419
  H      361.161     113.397    -242.760
  H      368.538     112.570    -239.499
  H      359.428     114.474    -246.574
  H      365.287     112.826    -244.441
  H      362.788     115.624    -243.780
  H      363.318     113.075    -242.132
  H      363.699     114.448    -240.209
  H      365.047     116.496    -241.642
  H      366.986     114.989    -241.829
  H      361.227     111.027    -248.836
  H      362.818     110.705    -248.129
  H      366.221     114.821    -240.221
  P      363.053     116.995    -239.612
  C      361.586     115.569    -238.014
  O      362.886     116.045    -238.321
  O      361.806     117.995    -239.511
  O      364.343     117.740    -239.682
  H      362.119     118.907    -239.383
  H      361.628     114.956    -237.138
  H      361.214     114.993    -238.835
  H      360.935     116.399    -237.837

 6  7  8  9  10  11  12  13  14  15  25  28  32  33  34  35 0
 6-311+G(2d,p)
 ****
 36  39  40 0
 6-311+G(2d,p)
 ****
 1  2  3  4  5  16  17  18  19  20  21  22  23  24 0
 3-21G
 ****
 26  27  29  30  31  37  38  41  42  43  44  45  46  47 0
 3-21G
 ****
 48 0
 3-21G
 ****


