%nproc=1
%NoSave
%Mem=1900MB
#P OB98/GEN NMR

erre ene a

0 1
  C      -89.666    -787.821    -896.260
  O      -89.495    -786.418    -896.370
  H      -89.920    -788.227    -897.240
  H      -90.473    -788.052    -895.560
  H      -88.733    -788.282    -895.910
  P      -89.063    -785.634    -895.030
  C      -87.553    -784.065    -896.480
  O      -87.661    -784.952    -895.350
  C      -86.248    -783.265    -896.410
  O      -86.194    -782.555    -895.140
  C      -84.997    -784.153    -896.480
  O      -83.921    -783.375    -897.110
  C      -84.655    -784.348    -895.000
  O      -83.359    -784.799    -894.830
  C      -84.968    -782.939    -894.480
  N      -82.415    -783.015    -890.050
  C      -81.979    -783.004    -891.340
  N      -82.742    -782.934    -892.460
  C      -84.061    -782.909    -892.170
  C      -84.642    -782.955    -890.910
  C      -83.757    -783.016    -889.790
  N      -84.179    -783.031    -888.510
  N      -86.003    -782.914    -890.990
  C      -86.259    -782.885    -892.320
  N      -85.097    -782.890    -893.030
  O      -88.680    -786.842    -894.010
  O      -90.127    -784.744    -894.430
  H      -83.203    -785.654    -895.280
  H      -89.469    -787.072    -893.490
  H      -80.921    -782.974    -891.450
  H      -87.249    -782.850    -892.770
  H      -84.177    -782.181    -894.770
  H      -85.341    -785.100    -894.530
  H      -85.140    -785.106    -897.010
  H      -86.235    -782.526    -897.230
  H      -88.442    -783.362    -896.460
  H      -87.597    -784.662    -897.410
  H      -83.486    -783.075    -887.770
  H      -85.201    -783.048    -888.270
  P      -84.022    -783.054    -898.670
  C      -84.113    -780.429    -898.810
  O      -84.846    -781.655    -898.890
  O      -85.138    -784.122    -899.170
  O      -82.751    -783.189    -899.450
  H      -84.834    -784.563    -900.000
  H      -84.776    -779.605    -898.973
  H      -83.346    -780.422    -899.556
  H      -83.668    -780.342    -897.841

 6  7  8  9  10  11  12  13  14  15  25  28  32  33  34  35 0
 6-311+G(2d,p)
 ****
 36  37  40 0
 6-311+G(2d,p)
 ****
 1  2  3  4  5  16  17  18  19  20  21  22  23  24 0
 3-21G
 ****
 26  27  29  30  31  38  39 41  42  43  44  45  46  47  48 0
 3-21G
 ****


