%nproc=1
%NoSave
%Mem=1900MB
#P OB98/GEN NMR

erre ene a

0 1
  C     -144.915     235.783     234.067
  O     -143.750     235.122     234.521
  H     -145.596     235.041     233.644
  H     -144.653     236.506     233.290
  H     -145.415     236.290     234.898
  P     -142.692     236.009     235.343
  C     -143.549     235.887     237.823
  O     -142.673     235.395     236.825
  C     -142.804     236.088     239.143
  O     -143.585     236.972     239.987
  C     -142.569     234.790     239.919
  O     -141.304     234.881     240.580
  C     -143.679     234.796     240.958
  O     -143.363     233.990     242.088
  C     -143.812     236.301     241.243
  N     -145.114     236.647     241.811
  C     -145.130     237.034     243.154
  O     -144.085     237.057     243.805
  N     -146.329     237.343     243.742
  C     -147.430     237.214     243.066
  N     -148.587     237.512     243.712
  C     -147.465     236.767     241.660
  C     -146.284     236.513     241.098
  O     -143.484     237.389     235.513
  O     -141.357     236.138     234.690
  H     -142.662     234.441     242.606
  H     -144.413     237.273     235.769
  H     -148.407     236.664     241.142
  H     -146.215     236.188     240.067
  H     -143.033     236.630     241.943
  H     -144.607     234.410     240.519
  H     -142.590     233.905     239.280
  H     -141.858     236.599     238.935
  H     -148.521     237.790     244.683
  H     -144.380     235.192     237.976
  H     -149.504     237.395     243.304
  H     -143.962     236.838     237.471
  P     -140.208     233.740     240.345
  C     -139.028     234.683     238.245
  O     -138.923     234.379     239.632
  O     -140.709     232.475     239.737
  O     -139.665     233.462     241.835
  H     -139.547     232.497     241.933
  H     -138.105     235.101     237.901
  H     -139.818     235.389     238.093
  H     -139.240     233.788     237.699

 6  7  8  9  10  11  12  13  14  15  16  26  30  31  32  33  35 0
 6-311+G(2d,p)
 ****
 37  38 0
 6-311+G(2d,p)
 ****
 1  2  3  4  5  17  18  19  20  21  22  23  24  25 0
 3-21G
 ****
 27  28  29  34  36  39  40  41  42  43  44  45  46 0
 3-21G
 ****


