%nproc=1
%NoSave
%Mem=1900MB
#P OB98/GEN NMR

erre ene a

0 1
  C      801.102     581.553    -497.246
  O      799.698     581.304    -497.091
  P      798.656     582.494    -497.356
  C      796.570     581.036    -497.969
  O      797.149     581.992    -497.089
  C      796.795     579.602    -497.461
  O      796.258     579.459    -496.109
  C      796.159     578.514    -498.331
  O      797.006     577.354    -498.246
  C      794.839     578.250    -497.597
  O      794.260     577.003    -497.913
  C      795.319     578.367    -496.146
  N      794.246     578.585    -495.185
  C      793.914     577.535    -494.329
  O      794.417     576.416    -494.363
  N      792.928     577.793    -493.415
  C      792.226     578.983    -493.289
  O      791.331     579.157    -492.457
  C      792.608     580.039    -494.231
  C      793.579     579.789    -495.114
  O      798.694     582.633    -498.953
  O      799.024     583.806    -496.716
  H      793.371     576.980    -497.497
  H      798.766     583.560    -499.195
  H      792.687     577.058    -492.774
  H      792.085     580.983    -494.164
  H      793.880     580.574    -495.819
  H      795.877     577.467    -495.872
  H      794.122     579.029    -497.867
  H      796.022     578.816    -499.368
  H      797.890     579.442    -497.383
  H      797.032     581.143    -498.973
  H      795.504     581.243    -498.071
  P      797.452     576.650    -499.627
  C      800.035     576.422    -499.241
  O      798.780     575.813    -499.303
  O      798.039     577.926    -500.410
  O      796.368     575.949    -500.354
  H      798.603     578.480    -499.857
  H      799.985     577.400    -498.738
  H      800.434     576.568    -500.240
  H      800.720     575.795    -498.694
  H      801.649     580.658    -497.032
  H      801.404     582.326    -496.570
  H      801.301     581.861    -498.251

 3  4  5  6  7  8  9  10  11  12  13  23  28  29  30  31  32 0
 6-311+G(2d,p)
 ****
 33  34 0
 6-311+G(2d,p)
 ****
 1  2  14  15  16  17  18  19  20  21  22  24  25  26 0
 3-21G
 ****
 27  35  36  37  38  39  40  41  42  43  44  45 0
 3-21G
 ****


