%nproc=1
%NoSave
%Mem=1900MB
#P OB98/GEN NMR

erre ene a

0 1
  C       32.478     -16.357      22.881
  O       32.794     -17.066      21.698
  H       33.056     -16.778      23.707
  H       31.413     -16.458      23.107
  H       32.736     -15.301      22.770
  P       32.061     -16.586      20.355
  C       30.655     -18.756      20.082
  O       30.653     -17.352      20.309
  C       29.725     -19.439      21.079
  O       30.155     -19.145      22.429
  C       28.281     -18.962      21.002
  O       27.576     -19.546      19.922
  C       27.759     -19.383      22.366
  O       27.365     -20.761      22.374
  C       28.979     -19.173      23.270
  N       27.401     -17.150      27.682
  C       27.440     -18.424      27.237
  N       27.888     -18.883      26.050
  C       28.357     -17.873      25.299
  C       28.387     -16.527      25.620
  C       27.880     -16.171      26.881
  N       27.817     -14.872      27.325
  N       28.906     -15.790      24.575
  C       29.193     -16.674      23.642
  N       28.883     -17.946      24.036
  O       32.918     -17.293      19.204
  O       31.988     -15.109      20.167
  H       26.614     -20.834      21.753
  H       33.540     -16.648      18.819
  H       27.050     -19.173      27.920
  H       29.616     -16.445      22.672
  H       29.111     -19.993      23.986
  H       26.892     -18.788      22.651
  H       28.249     -17.867      20.935
  H       29.786     -20.524      20.930
  H       31.671     -19.143      20.214
  H       30.330     -18.950      19.055
  H       27.379     -14.683      28.211
  H       28.065     -14.124      26.690
  P       27.093     -18.580      18.738
  C       24.813     -19.840      18.632
  O       25.491     -18.596      18.735
  O       27.484     -19.379      17.408
  O       27.697     -17.217      18.764
  H       27.762     -18.752      16.713
  H       23.756     -19.672      18.645
  H       25.085     -20.464      19.458
  H       25.087     -20.321      17.716

 6  7  8  9  10  11  12  13  14  15  25  28  32  33  34  35 0
 6-311+G(2d,p)
 ****
 36  37  40 0
 6-311+G(2d,p)
 ****
 1  2  3  4  5  16  17  18  19  20  21  22  23  24 0
 3-21G
 ****
 26  27  29  30  31  38  39 41  42  43  44  45  46  47  48 0
 3-21G
 ****


