%nproc=1
%NoSave
%Mem=1900MB
#P OB98/GEN NMR

erre ene a

0 1
  C      -22.647     618.021     -20.245
  O      -21.860     618.656     -19.254
  P      -22.154     618.278     -17.715
  C      -22.836     620.692     -17.028
  O      -21.915     619.618     -16.868
  C      -22.318     621.939     -16.314
  O      -22.196     621.708     -14.899
  C      -20.934     622.385     -16.768
  O      -20.975     623.129     -17.976
  C      -20.522     623.279     -15.608
  O      -21.131     624.575     -15.741
  C      -21.113     622.529     -14.402
  N      -16.967     622.526     -11.502
  C      -17.802     623.566     -11.837
  N      -17.461     624.787     -11.381
  N      -18.894     623.425     -12.548
  C      -19.112     622.141     -12.941
  C      -18.347     621.022     -12.673
  C      -17.143     621.200     -11.887
  O      -16.335     620.331     -11.610
  N      -18.889     619.898     -13.238
  C      -19.978     620.334     -13.846
  N      -20.133     621.692     -13.734
  O      -20.899     617.365     -17.319
  O      -23.452     617.580     -17.479
  H      -20.808     625.111     -14.984
  H      -21.095     616.860     -16.505
  H      -16.137     622.688     -10.950
  H      -20.672     619.702     -14.393
  H      -21.530     623.216     -13.663
  H      -19.440     623.439     -15.561
  H      -16.602     624.976     -10.877
  H      -20.244     621.538     -16.844
  H      -18.026     625.583     -11.661
  H      -23.052     622.747     -16.467
  H      -23.808     620.402     -16.605
  H      -22.975     620.891     -18.093
  P      -20.262     622.475     -19.254
  C      -18.521     624.393     -19.486
  O      -19.619     623.700     -20.062
  O      -21.503     622.027     -20.167
  O      -19.351     621.338     -18.940
  H      -21.250     621.280     -20.741
  H      -18.048     625.003     -20.268
  H      -17.780     623.693     -19.084
  H      -18.875     625.049     -18.684
  H      -22.346     618.363     -21.213
  H      -23.678     618.258     -20.088
  H      -22.511     616.961     -20.183

 3  4  5  6  7  8  9  10  11  12  23  26  30  31 0
 6-311+G(2d,p)
 ****
 33  35  36  37  38 0
 6-311+G(2d,p)
 ****
 1  2  13  14  15  16  17  18  19  20  21  22  24  25 0
 3-21G
 ****
 27  28  29  32  34  39  40  41  42  43  44  45  46  47  48  49 0
 3-21G
 ****


