%nproc=1
%NoSave
%Mem=1900MB
#P OB98/GEN NMR

erre ene a

0 1
  C      354.290    -116.344     -27.018
  O      353.020    -116.921     -26.791
  H      354.237    -115.260     -26.904
  H      354.995    -116.743     -26.281
  H      354.647    -116.598     -28.020
  P      351.826    -116.437     -27.748
  C      350.241    -115.485     -25.932
  O      351.112    -115.197     -27.018
  C      349.477    -114.225     -25.529
  O      350.399    -113.319     -24.875
  C      348.819    -113.473     -26.700
  O      347.409    -113.357     -26.483
  C      349.429    -112.081     -26.645
  O      348.486    -111.043     -26.905
  C      349.989    -111.995     -25.229
  N      351.275    -107.065     -25.356
  C      350.105    -107.675     -25.063
  N      349.855    -108.995     -24.943
  C      350.977    -109.709     -25.132
  C      352.244    -109.228     -25.416
  C      352.369    -107.835     -25.545
  N      353.549    -107.215     -25.897
  N      353.144    -110.272     -25.550
  C      352.424    -111.363     -25.398
  N      351.104    -111.074     -25.163
  O      350.752    -117.618     -27.619
  O      352.213    -116.196     -29.169
  H      348.926    -110.202     -26.687
  H      350.447    -117.883     -28.508
  H      349.253    -107.017     -24.913
  H      352.791    -112.376     -25.493
  H      349.231    -111.669     -24.506
  H      350.228    -112.016     -27.392
  H      349.009    -113.949     -27.668
  H      348.721    -114.506     -24.785
  H      350.827    -115.834     -25.074
  H      353.521    -106.227     -26.082
  H      354.339    -107.790     -26.146
  H      349.552    -116.282     -26.229
  P      346.483    -114.497     -27.141
  C      346.280    -113.073     -29.311
  O      346.586    -114.337     -28.734
  O      345.001    -113.990     -26.815
  O      346.737    -115.866     -26.606
  H      344.388    -114.748     -26.773
  H      346.395    -113.129     -30.373
  H      346.944    -112.332     -28.919
  H      345.271    -112.808     -29.075

 6  7  8  9  10  11  12  13  14  15  25  28  32  33  34  35 0
 6-311+G(2d,p)
 ****
 36  39  40 0
 6-311+G(2d,p)
 ****
 1  2  3  4  5  16  17  18  19  20  21  22  23  24 0
 3-21G
 ****
 26  27  29  30  31  37  38  41  42  43  44  45  46  47  48 0
 3-21G
 ****


