%nproc=1
%NoSave
%Mem=1900MB
#P OB98/GEN NMR

erre ene a

0 1
  C      -24.300     150.387     153.566
  O      -23.833     151.159     154.669
  P      -24.060     150.563     156.139
  C      -26.654     150.943     156.064
  O      -25.574     150.043     156.228
  C      -27.590     150.911     157.287
  O      -28.240     149.614     157.332
  C      -26.903     151.067     158.638
  O      -27.883     151.440     159.610
  C      -26.436     149.654     158.912
  O      -26.130     149.459     160.291
  C      -27.601     148.806     158.356
  N      -27.171     147.511     157.785
  C      -27.226     146.379     158.595
  O      -27.611     146.391     159.764
  N      -26.783     145.214     158.034
  C      -26.339     145.059     156.757
  O      -25.870     144.011     156.331
  C      -26.433     146.250     155.904
  C      -26.826     147.403     156.449
  O      -24.031     151.857     157.077
  O      -23.038     149.553     156.542
  H      -25.797     148.536     160.375
  H      -23.189     151.898     157.568
  H      -26.756     144.400     158.631
  H      -26.151     146.151     154.862
  H      -26.882     148.298     155.835
  H      -28.340     148.588     159.137
  H      -25.522     149.452     158.346
  H      -26.077     151.782     158.648
  H      -28.374     151.667     157.160
  H      -27.208     150.698     155.155
  H      -26.268     151.960     155.930
  P      -27.628     152.774     160.463
  C      -26.722     151.432     162.461
  O      -26.449     152.429     161.494
  O      -28.836     153.416     161.054
  O      -26.897     153.738     159.409
  H      -26.962     154.662     159.711
  H      -25.787     150.933     162.724
  H      -27.429     150.688     162.079
  H      -27.140     151.904     163.353
  H      -24.083     150.902     152.653
  H      -25.357     150.244     153.653
  H      -23.810     149.436     153.564

 3  4  5  6  7  8  9  10  11  12  13  23  28  29  30  31  32 0
 6-311+G(2d,p)
 ****
 33  34 0
 6-311+G(2d,p)
 ****
 1  2  14  15  16  17  18  19  20  21  22  24  25  26  27 0
 3-21G
 ****
 35  36  37  38  39  40  41  42  43  44  45 0
 3-21G
 ****


