%nproc=1
%NoSave
%Mem=1900MB
#P OB98/GEN NMR

erre ene a

0 1
  C      -64.656     135.150     250.700
  O      -64.997     135.932     251.829
  P      -66.350     135.633     252.627
  C      -67.990     137.601     252.424
  O      -67.547     136.373     251.857
  C      -69.475     137.810     252.140
  O      -69.722     137.797     250.719
  C      -70.376     136.726     252.721
  O      -70.545     136.905     254.114
  C      -71.642     136.923     251.896
  O      -72.432     137.998     252.427
  C      -71.068     137.305     250.523
  N      -73.735     134.905     246.898
  C      -74.070     135.887     247.762
  N      -73.312     136.449     248.728
  C      -72.099     135.876     248.766
  C      -71.625     134.841     247.975
  C      -72.496     134.363     246.982
  N      -72.144     133.405     246.056
  N      -70.336     134.505     248.343
  C      -70.044     135.313     249.340
  N      -71.053     136.200     249.587
  O      -66.295     135.884     254.097
  O      -66.634     134.086     252.329
  H      -71.968     138.831     252.219
  H      -66.638     133.590     253.169
  H      -75.077     136.280     247.658
  H      -69.117     135.307     249.898
  H      -71.636     138.119     250.057
  H      -72.276     136.032     251.879
  H      -69.957     135.737     252.506
  H      -69.761     138.798     252.524
  H      -67.410     138.414     251.979
  H      -72.792     133.241     245.301
  H      -71.156     133.217     245.910
  H      -67.810     137.588     253.503
  P      -70.330     135.668     255.107
  C      -72.438     134.491     254.242
  O      -71.039     134.399     254.432
  O      -70.688     135.914     256.534
  O      -68.772     135.326     254.950
  H      -68.429     134.983     255.796
  H      -72.948     134.311     255.191
  H      -72.744     133.729     253.521
  H      -72.715     135.477     253.857
  H      -63.725     135.491     250.298
  H      -65.421     135.243     249.958
  H      -64.564     134.124     250.991

 3  4  5  6  7  8  9  10  11  12  22  25  29  30  31  32 0
 6-311+G(2d,p)
 ****
 33  36  37 0
 6-311+G(2d,p)
 ****
 1  2  13  14  15  16  17  18  19  20  21  23  24  26 0
 3-21G
 ****
 27  28  34  35  38  39  40  41  42  43  44  45  46  47  48 0
 3-21G
 ****


