%nproc=1
%NoSave
%Mem=1900MB
#P OB98/GEN NMR

erre ene a

0 1
  C      541.468     341.519       5.159
  O      541.843     340.286       5.734
  H      540.396     341.654       5.282
  H      541.700     341.503       4.084
  H      541.998     342.350       5.644
  P      543.405     340.046       6.022
  C      544.122     339.488       3.594
  O      544.191     340.410       4.668
  C      544.692     340.113       2.313
  O      543.795     341.169       1.874
  C      546.088     340.733       2.496
  O      546.855     340.529       1.301
  C      545.779     342.231       2.593
  O      546.897     343.041       2.249
  C      544.598     342.345       1.633
  N      543.503     346.773      -0.464
  C      544.126     345.657      -0.992
  N      544.570     345.750      -2.268
  N      544.282     344.533      -0.334
  C      543.775     344.576       0.925
  C      543.155     345.618       1.573
  C      542.992     346.850       0.826
  O      542.482     347.896       1.264
  N      542.839     345.272       2.861
  C      543.282     344.049       3.005
  N      543.867     343.571       1.846
  O      543.507     338.449       6.098
  O      543.933     340.695       7.261
  H      547.579     342.946       2.951
  H      543.440     338.154       7.029
  H      543.425     347.615      -1.016
  H      543.241     343.458       3.916
  H      544.915     342.329       0.577
  H      545.481     342.481       3.628
  H      544.454     346.553      -2.860
  H      546.646     340.362       3.356
  H      544.977     344.924      -2.686
  H      544.710     339.351       1.526
  H      543.077     339.210       3.416
  H      544.678     338.583       3.847
  P      547.854     339.276       1.251
  C      549.874     340.866       1.667
  O      549.193     339.672       2.035
  O      548.320     339.226      -0.280
  O      547.222     337.983       1.675
  H      548.449     338.294      -0.557
  H      550.742     340.985       2.281
  H      549.223     341.704       1.803
  H      550.169     340.806       0.640

 6  7  8  9  10  11  12  13  14  15  26  29  33  34 0
 6-311+G(2d,p)
 ****
 36  38  39  40  41 0
 6-311+G(2d,p)
 ****
 1  2  3  4  5  16  17  18  19  20  21  22  23  24  25 0
 3-21G
 ****
 27  28  30  31  32  35  37  42  43  44  45  46  47 0
 3-21G
 ****
 48  49 0
 3-21G
 ****


