%nproc=1
%NoSave
%Mem=1900MB
#P OB98/GEN NMR

erre ene a

0 1
  C     -140.595    -375.975    -427.044
  O     -140.204    -376.332    -425.722
  P     -141.000    -375.651    -424.504
  C     -138.670    -374.765    -423.781
  O     -140.051    -374.472    -423.966
  C     -137.803    -373.694    -424.438
  O     -138.334    -373.341    -425.730
  C     -137.712    -372.387    -423.665
  O     -136.759    -372.438    -422.612
  C     -137.252    -371.430    -424.750
  O     -135.835    -371.584    -424.962
  C     -138.022    -371.946    -425.978
  N     -140.236    -368.342    -428.857
  C     -138.970    -368.798    -428.803
  N     -138.449    -369.755    -428.000
  C     -139.387    -370.228    -427.156
  C     -140.713    -369.825    -427.070
  C     -141.142    -368.845    -427.983
  N     -142.448    -368.399    -428.055
  N     -141.369    -370.537    -426.087
  C     -140.463    -371.353    -425.596
  N     -139.249    -371.208    -426.218
  O     -140.907    -376.759    -423.348
  O     -142.412    -375.272    -424.809
  H     -135.410    -371.589    -424.080
  H     -141.635    -376.639    -422.710
  H     -138.271    -368.346    -429.506
  H     -140.636    -372.061    -424.794
  H     -137.424    -371.903    -426.895
  H     -137.428    -370.380    -424.502
  H     -138.705    -372.071    -423.299
  H     -136.797    -374.117    -424.588
  H     -138.440    -375.735    -424.232
  H     -142.715    -367.838    -428.844
  H     -143.157    -368.916    -427.539
  H     -138.461    -374.821    -422.701
  P     -137.290    -372.114    -421.133
  C     -135.555    -370.171    -421.106
  O     -136.889    -370.580    -420.871
  O     -136.289    -372.936    -420.196
  O     -138.720    -372.474    -420.896
  H     -136.715    -373.158    -419.350
  H     -135.533    -369.080    -421.184
  H     -135.169    -370.598    -422.037
  H     -134.917    -370.478    -420.269
  H     -139.985    -376.499    -427.750
  H     -140.472    -374.921    -427.180
  H     -141.621    -376.237    -427.195

 3  4  5  6  7  8  9  10  11  12  22  25  29  30  31  32 0
 6-311+G(2d,p)
 ****
 33  36  37 0
 6-311+G(2d,p)
 ****
 1  2  13  14  15  16  17  18  19  20  21  23  24  26 0
 3-21G
 ****
 27  28  34  35  38  39  40  41  42  43  44  45  46  47  48 0
 3-21G
 ****


