%nproc=1
%NoSave
%Mem=1900MB
#P OB98/GEN NMR

erre ene a

0 1
  C      271.684       1.083     102.338
  O      272.233       1.338     103.615
  H      271.543       2.036     101.821
  H      270.716       0.586     102.434
  H      272.366       0.460     101.755
  P      272.414       0.069     104.583
  C      271.058       1.304     106.437
  O      271.158       0.176     105.581
  C      270.306       0.928     107.709
  O      268.890       0.795     107.445
  C      270.726      -0.405     108.324
  O      271.945      -0.334     109.043
  C      269.543      -0.655     109.240
  O      269.634       0.203     110.392
  C      268.370      -0.239     108.326
  N      267.829      -1.355     107.545
  C      267.313      -2.435     108.270
  O      267.325      -2.431     109.499
  N      266.825      -3.519     107.580
  C      266.829      -3.518     106.284
  N      266.334      -4.620     105.658
  C      267.350      -2.398     105.481
  C      267.828      -1.362     106.167
  O      273.642       0.488     105.520
  O      272.570      -1.252     103.910
  H      269.545       1.117     110.066
  H      273.744      -0.166     106.254
  H      267.345      -2.448     104.402
  H      268.228      -0.500     105.644
  H      267.556       0.207     108.908
  H      269.490      -1.679     109.610
  H      270.764      -1.200     107.570
  H      270.428       1.750     108.425
  H      266.039      -5.397     106.236
  H      270.520       2.095     105.903
  H      266.432      -4.778     104.664
  H      272.056       1.666     106.700
  P      272.788      -1.692     109.198
  C      271.484      -2.690     111.218
  O      271.801      -2.781     109.835
  O      273.795      -1.360     110.393
  O      273.509      -2.129     107.962
  H      274.653      -1.809     110.263
  H      270.819      -3.485     111.485
  H      271.013      -1.750     111.415
  H      272.381      -2.767     111.795

 6  7  8  9  10  11  12  13  14  15  16  26  30  31  32  33  35 0
 6-311+G(2d,p)
 ****
 37  38 0
 6-311+G(2d,p)
 ****
 1  2  3  4  5  17  18  19  20  21  22  23  24  25 0
 3-21G
 ****
 27  28  29  34  36  39  40  41  42  43  44  45  46 0
 3-21G
 ****


