%nproc=1
%NoSave
%Mem=1900MB
#P OB98/GEN NMR

erre ene a

0 1
  C     -185.290     365.368     -93.515
  O     -183.973     365.020     -93.891
  P     -183.635     363.536     -94.393
  C     -184.845     364.016     -96.618
  O     -184.776     363.179     -95.467
  C     -184.928     363.178     -97.896
  O     -183.703     362.447     -98.102
  C     -186.037     362.135     -97.883
  O     -187.295     362.742     -98.123
  C     -185.567     361.194     -98.984
  O     -185.938     361.684    -100.282
  C     -184.034     361.230     -98.804
  N     -183.526     360.051     -98.114
  C     -183.445     358.883     -98.880
  O     -183.818     358.879    -100.054
  N     -182.986     357.733     -98.282
  C     -182.664     357.749     -97.024
  N     -182.229     356.577     -96.487
  C     -182.766     358.951     -96.177
  C     -183.203     360.054     -96.779
  O     -183.434     362.527     -93.314
  O     -182.338     363.750     -95.310
  H     -185.724     360.970    -100.914
  H     -181.533     363.921     -94.761
  H     -182.497     358.912     -95.131
  H     -183.312     360.982     -96.230
  H     -183.534     361.294     -99.781
  H     -186.000     360.195     -98.882
  H     -186.039     361.606     -96.923
  H     -185.062     363.864     -98.743
  H     -182.202     355.768     -97.095
  H     -183.943     364.633     -96.650
  H     -181.986     356.469     -95.515
  H     -185.713     364.680     -96.533
  P     -188.629     362.059     -97.564
  C     -188.974     363.612     -95.551
  O     -188.676     362.298     -95.981
  O     -188.859     360.649     -98.002
  O     -189.793     363.017     -98.107
  H     -190.521     362.467     -98.456
  H     -189.302     363.576     -94.509
  H     -189.770     364.054     -96.159
  H     -188.076     364.230     -95.619
  H     -185.315     366.394     -93.212
  H     -185.604     364.748     -92.702
  H     -185.948     365.226     -94.347

 3  4  5  6  7  8  9  10  11  12  13  23  27  28  29  30  32 0
 6-311+G(2d,p)
 ****
 34  35 0
 6-311+G(2d,p)
 ****
 1  2  14  15  16  17  18  19  20  21  22  24  25  26 0
 3-21G
 ****
 31  33  36  37  38  39  40  41  42  43  44  45  46 0
 3-21G
 ****


