%nproc=1
%NoSave
%Mem=1900MB
#P OB98/GEN NMR

erre ene a

0 1
  C     -139.641    -205.204     199.764
  O     -139.820    -204.515     200.988
  H     -140.614    -205.311     199.277
  H     -139.228    -206.200     199.949
  H     -138.977    -204.638     199.106
  P     -138.494    -204.233     201.849
  C     -139.153    -206.257     203.323
  O     -138.812    -204.877     203.283
  C     -138.367    -206.969     204.420
  O     -138.784    -208.343     204.531
  C     -136.862    -207.011     204.190
  O     -136.257    -205.787     204.574
  C     -136.463    -208.152     205.115
  O     -136.392    -207.673     206.474
  C     -137.643    -209.133     204.968
  N     -135.195    -213.554     204.069
  C     -135.057    -212.633     205.049
  N     -135.711    -211.462     205.199
  C     -136.591    -211.276     204.203
  C     -136.843    -212.125     203.137
  C     -136.105    -213.322     203.094
  N     -136.256    -214.263     202.098
  N     -137.813    -211.599     202.309
  C     -138.179    -210.478     202.896
  N     -137.443    -210.218     204.026
  O     -138.009    -202.825     201.848
  O     -137.484    -205.301     201.211
  H     -135.686    -207.000     206.510
  H     -137.948    -206.132     201.010
  H     -134.323    -212.870     205.815
  H     -138.979    -209.830     202.553
  H     -137.910    -209.593     205.924
  H     -135.481    -208.562     204.871
  H     -136.621    -207.289     203.158
  H     -138.604    -206.479     205.374
  H     -138.949    -206.727     202.351
  H     -135.573    -215.001     202.049
  H     -136.843    -214.029     201.310
  H     -140.226    -206.325     203.521
  P     -134.930    -205.266     203.839
  C     -133.376    -206.667     205.333
  O     -133.745    -205.356     204.918
  O     -135.057    -203.941     203.170
  O     -134.563    -206.424     202.800
  H     -134.226    -206.039     201.967
  H     -132.582    -206.605     206.048
  H     -133.048    -207.231     204.485
  H     -134.220    -207.151     205.778

 6  7  8  9  10  11  12  13  14  15  25  28  32  33  34  35 0
 6-311+G(2d,p)
 ****
 36  39  40 0
 6-311+G(2d,p)
 ****
 1  2  3  4  5  16  17  18  19  20  21  22  23  24 0
 3-21G
 ****
 26  27  29  30  31  37  38  41  42  43  44  45  46  47 0
 3-21G
 ****
 48 0
 3-21G
 ****


