%nproc=1
%NoSave
%Mem=1900MB
#P OB98/GEN NMR

erre ene a

0 1
  C     -344.928      48.125     105.842
  O     -344.514      47.444     107.009
  H     -344.530      49.146     105.841
  H     -344.540      47.599     104.966
  H     -346.020      48.149     105.783
  P     -344.977      48.086     108.406
  C     -342.812      49.304     109.147
  O     -344.118      49.434     108.604
  C     -342.034      50.609     108.964
  O     -342.698      51.645     109.733
  C     -340.565      50.535     109.431
  O     -339.690      51.036     108.411
  C     -340.508      51.475     110.625
  O     -339.268      52.156     110.733
  C     -341.671      52.427     110.359
  N     -340.595      55.905     113.925
  C     -340.146      55.758     112.657
  N     -340.549      54.872     111.721
  C     -341.545      54.094     112.201
  C     -342.115      54.141     113.463
  C     -341.592      55.087     114.352
  N     -342.008      55.206     115.662
  N     -343.102      53.179     113.588
  C     -343.090      52.534     112.433
  N     -342.154      53.040     111.571
  O     -344.351      47.083     109.491
  O     -346.452      48.223     108.570
  H     -338.581      51.478     110.889
  H     -345.082      46.691     110.008
  H     -339.356      56.438     112.355
  H     -343.707      51.673     112.190
  H     -341.392      53.227     109.657
  H     -340.675      50.899     111.538
  H     -340.263      49.522     109.707
  H     -342.086      50.902     107.907
  H     -342.273      48.492     108.629
  H     -341.494      55.825     116.267
  H     -342.659      54.520     116.019
  H     -342.895      49.048     110.209
  P     -339.393      50.037     107.183
  C     -337.201      49.078     108.229
  O     -338.519      48.801     107.742
  O     -338.359      50.867     106.283
  O     -340.609      49.656     106.406
  H     -338.706      50.958     105.374
  H     -336.746      48.169     108.564
  H     -337.260      49.769     109.044
  H     -336.612      49.503     107.443

 6  7  8  9  10  11  12  13  14  15  25  28  32  33  34  35 0
 6-311+G(2d,p)
 ****
 36  39  40 0
 6-311+G(2d,p)
 ****
 1  2  3  4  5  16  17  18  19  20  21  22  23  24 0
 3-21G
 ****
 26  27  29  30  31  37  38  41  42  43  44  45  46  47  48 0
 3-21G
 ****


