%nproc=1
%NoSave
%Mem=1900MB
#P OB98/GEN NMR

erre ene a

0 1
  C      449.246    -581.926    -665.414
  O      448.671    -580.670    -665.100
  P      448.588    -580.251    -663.554
  C      448.395    -577.702    -664.053
  O      447.798    -578.855    -663.453
  C      447.807    -576.419    -663.468
  O      446.382    -576.333    -663.828
  C      447.895    -576.335    -661.927
  O      448.083    -574.954    -661.557
  C      446.516    -576.748    -661.474
  O      446.216    -576.236    -660.167
  C      445.641    -576.159    -662.594
  N      440.744    -575.800    -661.404
  C      441.729    -574.821    -661.399
  N      441.342    -573.614    -660.917
  N      442.927    -575.021    -661.823
  C      443.159    -576.279    -662.266
  C      442.263    -577.325    -662.344
  C      440.920    -577.104    -661.871
  O      440.012    -577.935    -661.839
  N      442.844    -578.453    -662.887
  C      444.109    -578.115    -663.076
  N      444.333    -576.799    -662.699
  O      450.106    -579.836    -663.198
  O      448.089    -581.336    -662.653
  H      446.907    -576.570    -659.571
  H      450.520    -580.557    -662.666
  H      439.823    -575.602    -661.076
  H      444.879    -578.749    -663.493
  H      445.468    -575.101    -662.444
  H      446.458    -577.819    -661.444
  H      440.435    -573.418    -660.519
  H      448.691    -576.945    -661.492
  H      442.068    -572.894    -660.850
  H      448.297    -575.571    -663.949
  H      448.228    -577.730    -665.116
  H      449.486    -577.726    -663.870
  P      449.312    -574.658    -660.530
  C      449.798    -572.246    -661.370
  O      449.336    -573.082    -660.320
  O      450.599    -574.966    -661.430
  O      449.263    -575.499    -659.296
  H      451.341    -575.206    -660.858
  H      448.997    -571.605    -661.711
  H      450.215    -572.818    -662.211
  H      450.630    -571.628    -660.967
  H      449.234    -582.069    -666.474
  H      448.682    -582.704    -664.943
  H      450.256    -581.954    -665.062

 3  4  5  6  7  8  9  10  11  12  23  26  30  31 0
 6-311+G(2d,p)
 ****
 33  35  36  37  38 0
 6-311+G(2d,p)
 ****
 1  2  13  14  15  16  17  18  19  20  21  22  24  25 0
 3-21G
 ****
 27  28  29  32  34  39  40  41  42  43  44  45  46  47  48  49 0
 3-21G
 ****


