%nproc=1
%NoSave
%Mem=1900MB
#P OB98/GEN NMR

erre ene a

0 1
  C       77.431    -139.403     -62.378
  O       76.374    -139.339     -63.317
  H       78.219    -140.043     -62.781
  H       77.069    -139.837     -61.443
  H       77.841    -138.406     -62.195
  P       75.144    -138.371     -62.960
  C       73.573    -138.084     -60.914
  O       74.755    -138.682     -61.429
  C       72.696    -139.128     -60.222
  O       72.143    -140.026     -61.233
  C       73.440    -139.999     -59.192
  O       72.533    -140.292     -58.123
  C       73.699    -141.284     -59.962
  O       73.927    -142.397     -59.100
  C       72.413    -141.370     -60.787
  N       70.100    -145.125     -63.222
  C       69.685    -144.355     -62.150
  N       68.460    -144.631     -61.647
  N       70.402    -143.403     -61.616
  C       71.589    -143.217     -62.240
  C       72.121    -143.910     -63.305
  C       71.326    -144.981     -63.870
  O       71.649    -145.706     -64.806
  N       73.371    -143.434     -63.632
  C       73.591    -142.455     -62.766
  N       72.539    -142.288     -61.904
  O       73.938    -139.015     -63.796
  O       75.347    -136.929     -63.289
  H       73.173    -142.452     -58.473
  H       73.855    -138.576     -64.663
  H       69.512    -145.852     -63.587
  H       74.486    -141.849     -62.719
  H       71.557    -141.713     -60.191
  H       74.575    -141.170     -60.613
  H       67.831    -145.315     -62.035
  H       74.353    -139.542     -58.790
  H       68.116    -144.051     -60.887
  H       71.843    -138.615     -59.758
  H       73.011    -137.635     -61.742
  H       73.847    -137.296     -60.204
  P       72.797    -139.602     -56.698
  C       74.176    -140.201     -54.571
  O       73.972    -140.412     -55.960
  O       71.499    -140.017     -55.853
  O       72.968    -138.118     -56.758
  H       71.319    -139.347     -55.170
  H       74.989    -140.810     -54.233
  H       73.287    -140.464     -54.036
  H       74.406    -139.171     -54.397

 6  7  8  9  10  11  12  13  14  15  26  29  33  34 0
 6-311+G(2d,p)
 ****
 36  38  39  40  41 0
 6-311+G(2d,p)
 ****
 1  2  3  4  5  16  17  18  19  20  21  22  23  24  25 0
 3-21G
 ****
 27  28  30  31  32  35  37  42  43  44  45  46  47 0
 3-21G
 ****
 48  49 0
 3-21G
 ****


