%nproc=1
%NoSave
%Mem=1900MB
#P OB98/GEN NMR

erre ene a

0 1
  C     -791.193    -993.490    1212.630
  O     -791.693    -993.064    1211.380
  H     -791.791    -993.035    1213.417
  H     -790.154    -993.182    1212.749
  H     -791.271    -994.580    1212.715
  P     -790.943    -993.535    1210.037
  C     -790.181    -991.098    1209.614
  O     -790.839    -992.239    1209.087
  C     -790.010    -990.039    1208.527
  O     -789.127    -990.578    1207.520
  C     -791.333    -989.663    1207.830
  O     -791.607    -988.270    1207.840
  C     -791.247    -990.382    1206.498
  O     -792.007    -989.799    1205.463
  C     -789.745    -990.418    1206.241
  N     -789.331    -991.523    1205.339
  C     -788.836    -991.162    1204.076
  O     -788.699    -990.017    1203.669
  N     -788.460    -992.213    1203.258
  C     -788.562    -993.534    1203.587
  O     -788.217    -994.437    1202.815
  C     -789.100    -993.851    1204.911
  C     -789.462    -992.840    1205.717
  O     -791.521    -994.755    1209.396
  O     -789.434    -993.777    1210.492
  H     -791.905    -990.363    1204.661
  H     -789.256    -994.725    1210.570
  H     -788.094    -991.952    1202.368
  H     -789.200    -994.894    1205.175
  H     -789.860    -993.025    1206.696
  H     -789.399    -989.489    1205.782
  H     -791.623    -991.412    1206.614
  H     -792.190    -990.082    1208.407
  H     -789.538    -989.158    1208.952
  H     -789.205    -991.421    1209.989
  H     -790.777    -990.692    1210.449
  P     -792.560    -987.518    1208.869
  C     -793.780    -986.225    1206.896
  O     -793.132    -986.200    1208.170
  O     -792.047    -987.375    1210.253
  O     -793.884    -988.463    1208.929
  H     -794.242    -988.371    1209.835
  H     -794.078    -985.233    1206.628
  H     -794.643    -986.855    1206.947
  H     -793.104    -986.605    1206.159

 6  7  8  9  10  11  12  13  14  15  16  26  31  32  33  34  35 0
 6-311+G(2d,p)
 ****
 36  37 0
 6-311+G(2d,p)
 ****
 1  2  3  4  5  17  18  19  20  21  22  23  24  25 0
 3-21G
 ****
 27  28  29  30  38  39  40  41  42  43  44  45 0
 3-21G
 ****


