%nproc=1
%NoSave
%Mem=1900MB
#P OB98/GEN NMR

erre ene a

0 1
  C       36.021     235.511    -205.347
  O       36.752     234.529    -204.632
  P       36.931     234.748    -203.050
  C       39.463     235.145    -202.601
  O       38.194     235.724    -202.887
  C       39.961     234.340    -203.803
  O       40.120     235.197    -204.944
  C       41.315     233.679    -203.587
  O       41.183     232.519    -202.794
  C       41.739     233.399    -205.027
  O       41.216     232.143    -205.483
  C       41.104     234.578    -205.802
  N       42.090     235.543    -206.260
  C       42.594     235.328    -207.549
  O       42.215     234.354    -208.213
  N       43.550     236.190    -208.039
  C       43.960     237.176    -207.298
  N       44.898     238.006    -207.839
  C       43.467     237.423    -205.933
  C       42.550     236.576    -205.473
  O       37.484     233.335    -202.546
  O       35.688     235.166    -202.332
  H       41.630     231.462    -204.905
  H       37.253     233.183    -201.608
  H       43.846     238.260    -205.363
  H       42.137     236.683    -204.481
  H       40.560     234.206    -206.683
  H       42.830     233.341    -205.126
  H       42.013     234.384    -203.127
  H       39.200     233.581    -204.049
  H       45.219     237.806    -208.780
  H       39.377     234.473    -201.740
  H       45.265     238.814    -207.354
  H       40.169     235.942    -202.354
  P       42.423     232.104    -201.868
  C       43.615     230.062    -202.867
  O       43.496     231.471    -202.875
  O       41.862     230.806    -201.116
  O       42.935     233.132    -200.915
  H       42.510     230.519    -200.442
  H       44.250     229.760    -203.706
  H       42.630     229.594    -202.991
  H       44.074     229.734    -201.935
  H       35.980     235.242    -206.382
  H       36.504     236.460    -205.244
  H       35.027     235.572    -204.954

 3  4  5  6  7  8  9  10  11  12  13  21  23  27  28  29  30  32 0
 6-311+G(2d,p)
 ****
 34  35 0
 6-311+G(2d,p)
 ****
 1  2  14  15  16  17  18  19  20  22  24  25  26 0
 3-21G
 ****
 31  33  36  37  38  39  40  41  42  43  44  45  46 0
 3-21G
 ****


