%nproc=1
%NoSave
%Mem=1900MB
#P OB98/GEN NMR

erre ene a

0 1
  C      897.132     510.324    -554.358
  O      897.175     511.402    -555.271
  H      897.005     509.392    -554.919
  H      896.284     510.443    -553.677
  H      898.062     510.273    -553.785
  P      897.395     512.861    -554.643
  C      898.657     513.596    -556.808
  O      897.598     513.851    -555.889
  C      898.172     512.655    -557.919
  O      897.024     513.263    -558.578
  C      899.234     512.385    -559.003
  O      899.017     511.073    -559.537
  C      898.865     513.424    -560.051
  O      899.464     513.109    -561.283
  C      897.341     513.325    -559.985
  N      895.651     515.217    -564.413
  C      896.199     514.023    -564.086
  N      896.616     513.591    -562.883
  C      896.396     514.531    -561.943
  C      895.846     515.788    -562.117
  C      895.467     516.131    -563.426
  N      894.931     517.352    -563.763
  N      895.801     516.471    -560.920
  C      896.309     515.637    -560.031
  N      896.680     514.446    -560.605
  O      898.853     512.763    -553.992
  O      896.367     513.302    -553.654
  H      899.319     512.170    -561.515
  H      898.783     512.506    -553.054
  H      896.321     513.325    -564.914
  H      896.446     515.839    -558.974
  H      896.961     512.414    -560.461
  H      899.209     514.423    -559.759
  H      900.255     512.471    -558.639
  H      897.815     511.718    -557.467
  H      899.487     513.138    -556.261
  H      898.981     514.540    -557.252
  H      894.710     517.529    -564.732
  H      894.820     518.059    -563.047
  P      900.082     509.914    -559.221
  C      899.160     508.023    -560.774
  O      900.218     508.922    -560.473
  O      899.288     509.011    -558.162
  O      901.380     510.382    -558.631
  H      899.867     508.793    -557.412
  H      899.420     507.442    -561.634
  H      898.267     508.577    -560.974
  H      898.997     507.373    -559.940

 6  7  8  9  10  11  12  13  14  15  25  28  32  33  34  35 0
 6-311+G(2d,p)
 ****
 36  37  40 0
 6-311+G(2d,p)
 ****
 1  2  3  4  5  16  17  18  19  20  21  22  23  24 0
 3-21G
 ****
 26  27  29  30  31  38  39 41  42  43  44  45  46  47  48 0
 3-21G
 ****


