%nproc=1
%NoSave
%Mem=1900MB
#P OB98/GEN NMR

erre ene a

0 1
  C      -93.812     620.099    -199.085
  O      -92.670     619.753    -198.325
  H      -94.485     620.728    -198.491
  H      -93.487     620.670    -199.966
  H      -94.331     619.198    -199.423
  P      -92.926     618.900    -196.988
  C      -92.293     620.204    -194.831
  O      -93.265     619.970    -195.843
  C      -91.145     621.047    -195.406
  O      -91.675     622.166    -196.147
  C      -90.235     621.651    -194.350
  O      -89.253     620.727    -193.879
  C      -89.576     622.771    -195.150
  O      -88.567     622.219    -196.017
  C      -90.763     623.285    -195.987
  N      -90.360     628.135    -194.370
  C      -89.463     627.296    -194.924
  N      -89.644     626.016    -195.328
  C      -90.915     625.624    -195.100
  C      -91.925     626.362    -194.525
  C      -91.627     627.691    -194.159
  N      -92.524     628.541    -193.566
  N      -93.090     625.607    -194.417
  C      -92.770     624.444    -194.941
  N      -91.471     624.398    -195.354
  O      -91.461     618.385    -196.587
  O      -93.911     617.779    -197.108
  H      -88.063     621.571    -195.485
  H      -91.527     617.613    -195.994
  H      -88.468     627.695    -195.078
  H      -93.447     623.599    -195.046
  H      -90.459     623.607    -196.992
  H      -89.094     623.519    -194.535
  H      -90.793     622.094    -193.519
  H      -90.585     620.417    -196.103
  H      -91.894     619.244    -194.490
  H      -92.161     629.401    -193.175
  H      -93.416     628.176    -193.267
  H      -92.766     620.732    -193.988
  P      -88.588     621.025    -192.454
  C      -86.046     621.601    -192.556
  O      -87.388     622.055    -192.740
  O      -87.836     619.654    -192.114
  O      -89.549     621.438    -191.376
  H      -87.736     619.532    -191.151
  H      -85.366     622.395    -192.784
  H      -85.857     620.772    -193.206
  H      -85.909     621.295    -191.540

 6  7  8  9  10  11  12  13  14  15  25  28  32  33  34  35 0
 6-311+G(2d,p)
 ****
 36  39  40 0
 6-311+G(2d,p)
 ****
 1  2  3  4  5  16  17  18  19  20  21  22  23  24 0
 3-21G
 ****
 26  27  29  30  31  37  38  41  42  43  44  45  46  47 0
 3-21G
 ****
 48 0
 3-21G
 ****


