%nproc=1
%NoSave
%Mem=1900MB
#P OB98/GEN NMR

erre ene a

0 1
  C       45.032    -699.944    -256.490
  O       44.174    -699.874    -257.612
  P       44.543    -698.917    -258.841
  C       45.190    -700.979    -260.227
  O       45.595    -699.696    -259.768
  C       44.858    -700.928    -261.718
  O       46.046    -700.642    -262.490
  C       44.315    -702.237    -262.280
  O       42.961    -702.418    -261.908
  C       44.550    -702.038    -263.771
  O       43.499    -701.244    -264.347
  C       45.876    -701.264    -263.782
  N       48.834    -703.093    -267.512
  C       47.676    -702.397    -267.541
  N       46.924    -701.983    -266.502
  C       47.473    -702.374    -265.335
  C       48.633    -703.113    -265.154
  C       49.348    -703.459    -266.312
  N       50.556    -704.113    -266.296
  N       48.849    -703.341    -263.808
  C       47.837    -702.757    -263.195
  N       47.022    -702.106    -264.074
  O       44.938    -697.523    -258.472
  O       43.217    -698.912    -259.735
  H       42.655    -701.566    -263.972
  H       42.871    -697.999    -259.802
  H       47.311    -702.141    -268.532
  H       47.662    -702.765    -262.125
  H       45.868    -700.452    -264.522
  H       44.579    -702.983    -264.321
  H       44.923    -703.078    -261.930
  H       44.145    -700.111    -261.879
  H       44.307    -701.286    -259.663
  H       51.053    -704.186    -267.167
  H       51.091    -704.122    -265.424
  H       45.996    -701.701    -260.044
  P       42.308    -703.874    -261.965
  C       42.295    -704.270    -259.430
  O       42.829    -704.674    -260.676
  O       42.449    -704.601    -263.266
  O       40.767    -703.612    -261.615
  H       40.213    -704.269    -262.087
  H       42.787    -703.349    -259.099
  H       42.483    -705.056    -258.695
  H       41.219    -704.103    -259.504
  H       44.628    -700.629    -255.774
  H       45.119    -698.974    -256.046
  H       45.999    -700.282    -256.801

 3  4  5  6  7  8  9  10  11  12  22  25  29  30  31  32 0
 6-311+G(2d,p)
 ****
 33  36  37 0
 6-311+G(2d,p)
 ****
 1  2  13  14  15  16  17  18  19  20  21  23  24  26 0
 3-21G
 ****
 27  28  34  35  38  39  40  41  42  43  44  45  46  47  48 0
 3-21G
 ****


