%nproc=1
%NoSave
%Mem=1900MB
#P OB98/GEN NMR

erre ene a

0 1
  C      457.756     286.778    -379.519
  O      458.616     287.217    -380.559
  P      457.928     287.821    -381.878
  C      458.360     290.331    -381.347
  O      457.404     289.280    -381.471
  C      458.075     291.433    -382.360
  O      456.885     292.154    -381.986
  C      459.171     292.475    -382.467
  O      460.258     291.984    -383.222
  C      458.426     293.630    -383.128
  O      458.437     293.497    -384.559
  C      456.994     293.472    -382.569
  N      456.650     294.506    -381.611
  C      456.465     295.789    -382.139
  O      456.612     295.986    -383.347
  N      456.158     296.820    -381.283
  C      456.047     296.584    -380.012
  N      455.735     297.640    -379.210
  C      456.255     295.252    -379.413
  C      456.558     294.268    -380.259
  O      456.584     286.965    -382.013
  O      458.773     287.752    -383.109
  H      457.790     294.153    -384.892
  H      456.289     286.927    -382.943
  H      456.156     295.109    -378.347
  H      456.727     293.257    -379.904
  H      456.261     293.508    -383.384
  H      458.883     294.597    -382.896
  H      459.510     292.782    -381.469
  H      457.896     290.961    -383.338
  H      455.607     298.538    -379.649
  H      459.362     289.931    -381.531
  H      455.607     297.555    -378.212
  H      458.321     290.722    -380.324
  P      461.553     291.476    -382.427
  C      461.437     289.346    -383.853
  O      461.500     289.878    -382.541
  O      461.127     291.714    -380.901
  O      462.855     292.124    -382.758
  H      461.883     291.531    -380.316
  H      461.569     288.262    -383.797
  H      462.233     289.767    -384.475
  H      460.462     289.565    -384.300
  H      458.342     286.402    -378.707
  H      457.118     286.002    -379.888
  H      457.160     287.599    -379.179

 3  4  5  6  7  8  9  10  11  12  13  21  23  27  28  29  30  32 0
 6-311+G(2d,p)
 ****
 34  35 0
 6-311+G(2d,p)
 ****
 1  2  14  15  16  17  18  19  20  22  24  25  26 0
 3-21G
 ****
 31  33  36  37  38  39  40  41  42  43  44  45  46 0
 3-21G
 ****


