%nproc=1
%NoSave
%Mem=1900MB
#P OB98/GEN NMR

erre ene a

0 1
  C      432.389    -291.547    -628.361
  O      431.952    -291.803    -629.676
  H      431.835    -290.690    -627.966
  H      433.459    -291.317    -628.351
  H      432.193    -292.417    -627.725
  P      432.721    -292.967    -630.475
  C      431.063    -293.688    -632.358
  O      431.532    -293.898    -631.034
  C      429.577    -294.026    -632.442
  O      428.804    -293.172    -631.574
  C      428.963    -293.847    -633.835
  O      429.276    -294.902    -634.731
  C      427.488    -293.835    -633.470
  O      427.056    -295.178    -633.165
  C      427.509    -292.952    -632.201
  N      427.312    -291.533    -632.490
  C      426.055    -291.160    -632.999
  O      425.178    -292.007    -633.186
  N      425.830    -289.835    -633.310
  C      426.769    -288.964    -633.117
  N      426.484    -287.670    -633.451
  C      428.095    -289.302    -632.577
  C      428.293    -290.589    -632.283
  O      433.351    -293.865    -629.308
  O      433.701    -292.511    -631.509
  H      427.495    -295.770    -633.810
  H      433.729    -294.699    -629.688
  H      428.847    -288.537    -632.438
  H      429.253    -290.917    -631.879
  H      426.744    -293.279    -631.486
  H      426.853    -293.471    -634.272
  H      429.233    -292.877    -634.261
  H      429.446    -295.065    -632.087
  H      425.587    -287.479    -633.876
  H      431.642    -294.335    -633.026
  H      427.189    -286.941    -633.481
  H      431.214    -292.642    -632.656
  P      430.411    -294.613    -635.831
  C      432.017    -296.535    -635.083
  O      431.808    -295.129    -635.209
  O      430.565    -293.025    -635.795
  O      430.100    -295.116    -637.206
  H      430.785    -292.670    -636.682
  H      432.982    -296.715    -634.658
  H      431.962    -296.992    -636.049
  H      431.264    -296.952    -634.448

 6  7  8  9  10  11  12  13  14  15  16  26  30  31  32  33  35 0
 6-311+G(2d,p)
 ****
 37  38 0
 6-311+G(2d,p)
 ****
 1  2  3  4  5  17  18  19  20  21  22  23  24  25 0
 3-21G
 ****
 27  28  29  34  36  39  40  41  42  43  44  45  46 0
 3-21G
 ****


