%nproc=1
%NoSave
%Mem=1900MB
#P OB98/GEN NMR

erre ene a

0 1
  C     -117.636    -939.778      23.748
  O     -118.463    -938.637      23.855
  H     -117.585    -940.074      22.697
  H     -118.058    -940.610      24.329
  H     -116.623    -939.556      24.101
  P     -118.653    -938.030      25.324
  C     -117.195    -935.867      25.226
  O     -117.311    -937.228      25.652
  C     -115.778    -935.344      25.472
  O     -115.653    -934.976      26.877
  C     -114.671    -936.374      25.183
  O     -113.487    -935.660      24.781
  C     -114.444    -936.985      26.566
  O     -113.258    -937.736      26.608
  C     -114.535    -935.726      27.422
  N     -112.270    -936.260      31.973
  C     -111.792    -935.907      30.766
  N     -112.444    -935.773      29.599
  C     -113.769    -936.024      29.766
  C     -114.414    -936.356      30.943
  C     -113.604    -936.482      32.090
  N     -114.103    -936.838      33.323
  N     -115.763    -936.536      30.727
  C     -115.932    -936.295      29.442
  N     -114.746    -935.997      28.822
  O     -118.553    -939.326      26.272
  O     -119.910    -937.264      25.547
  H     -113.298    -938.474      25.957
  H     -119.450    -939.649      26.472
  H     -110.714    -935.717      30.715
  H     -116.879    -936.336      28.920
  H     -113.635    -935.104      27.315
  H     -115.272    -937.683      26.810
  H     -114.936    -937.108      24.409
  H     -115.626    -934.425      24.900
  H     -117.914    -935.270      25.779
  H     -117.434    -935.818      24.148
  H     -113.454    -936.924      34.092
  H     -115.082    -937.042      33.424
  P     -113.330    -935.171      23.267
  C     -113.811    -932.747      24.134
  O     -114.019    -933.727      23.122
  O     -114.394    -936.108      22.507
  O     -111.968    -935.307      22.667
  H     -114.104    -936.225      21.569
  H     -114.339    -931.852      23.878
  H     -112.766    -932.534      24.214
  H     -114.172    -933.119      25.070

 6  7  8  9  10  11  12  13  14  15  25  28  32  33  34  35 0
 6-311+G(2d,p)
 ****
 36  37  40 0
 6-311+G(2d,p)
 ****
 1  2  3  4  5  16  17  18  19  20  21  22  23  24 0
 3-21G
 ****
 26  27  29  30  31  38  39 41  42  43  44  45  46  47  48 0
 3-21G
 ****


