%nproc=1
%NoSave
%Mem=1900MB
#P OB98/GEN NMR

erre ene a

0 1
  C      -58.253     -76.061     -15.477
  O      -57.206     -75.117     -15.384
  H      -57.874     -76.963     -15.963
  H      -59.071     -75.655     -16.077
  H      -58.620     -76.324     -14.480
  P      -57.518     -73.757     -14.596
  C      -55.309     -72.744     -13.661
  O      -56.211     -72.836     -14.753
  C      -54.331     -73.919     -13.698
  O      -53.588     -73.865     -14.946
  C      -53.310     -73.894     -12.554
  O      -53.047     -75.236     -12.134
  C      -52.071     -73.308     -13.207
  O      -50.860     -73.650     -12.548
  C      -52.183     -73.890     -14.620
  N      -51.409     -73.134     -15.602
  C      -50.239     -73.713     -16.079
  O      -49.848     -74.843     -15.792
  N      -49.496     -72.932     -16.928
  C      -49.789     -71.658     -17.315
  O      -49.072     -71.001     -18.060
  C      -51.035     -71.097     -16.771
  C      -51.774     -71.848     -15.952
  O      -57.468     -74.200     -13.059
  O      -58.796     -73.080     -14.957
  H      -58.353     -74.477     -12.755
  H      -50.732     -74.617     -12.633
  H      -48.645     -73.338     -17.285
  H      -51.296     -70.084     -17.048
  H      -52.690     -71.459     -15.522
  H      -51.864     -74.939     -14.626
  H      -52.144     -72.214     -13.233
  H      -53.640     -73.299     -11.702
  H      -54.899     -74.856     -13.701
  H      -55.874     -72.774     -12.725
  H      -54.765     -71.796     -13.721
  P      -53.659     -75.701     -10.724
  C      -53.492     -78.229     -11.365
  O      -53.113     -77.191     -10.478
  O      -55.199     -75.896     -11.096
  O      -53.388     -74.729      -9.624
  H      -55.340     -76.258     -11.987
  H      -53.040     -79.147     -11.053
  H      -53.165     -77.989     -12.355
  H      -54.557     -78.334     -11.357

 6  7  8  9  10  11  12  13  14  15  16  27  31  32  33  34  35 0
 6-311+G(2d,p)
 ****
 36  37 0
 6-311+G(2d,p)
 ****
 1  2  3  4  5  17  18  19  20  21  22  23  24  25 0
 3-21G
 ****
 26  28  29  30  38  39  40  41  42  43  44  45 0
 3-21G
 ****


