%nproc=1
%NoSave
%Mem=1900MB
#P OB98/GEN NMR

erre ene a

0 1
  C     -263.586    -153.113      38.180
  O     -262.394    -153.362      37.461
  H     -264.386    -153.732      37.763
  H     -263.870    -152.060      38.084
  H     -263.454    -153.367      39.235
  P     -261.081    -152.579      37.948
  C     -260.572    -150.061      38.381
  O     -261.367    -151.019      37.690
  C     -261.419    -148.840      38.731
  O     -262.568    -149.256      39.507
  C     -260.700    -147.806      39.588
  O     -259.836    -146.985      38.820
  C     -261.877    -147.050      40.191
  O     -262.375    -146.048      39.295
  C     -262.926    -148.156      40.371
  N     -263.975    -146.699      45.145
  C     -264.039    -146.043      43.965
  N     -263.759    -146.510      42.727
  C     -263.388    -147.803      42.786
  C     -263.272    -148.599      43.912
  C     -263.588    -147.998      45.144
  N     -263.488    -148.655      46.350
  N     -262.819    -149.861      43.572
  C     -262.677    -149.827      42.261
  N     -263.016    -148.608      41.744
  O     -260.005    -152.957      36.822
  O     -260.604    -152.921      39.319
  H     -261.691    -145.353      39.243
  H     -259.474    -153.719      37.123
  H     -264.353    -145.004      44.023
  H     -262.322    -150.650      41.649
  H     -263.930    -147.826      40.071
  H     -261.597    -146.544      41.119
  H     -260.149    -148.298      40.400
  H     -261.785    -148.392      37.799
  H     -259.741    -149.753      37.740
  H     -260.170    -150.526      39.290
  H     -263.712    -148.153      47.194
  H     -263.099    -149.586      46.367
  P     -258.620    -146.251      39.558
  C     -258.322    -144.930      41.779
  O     -259.222    -145.437      40.805
  O     -258.201    -145.105      38.519
  O     -257.470    -147.143      39.900
  H     -257.413    -145.379      38.013
  H     -258.872    -144.416      42.540
  H     -257.638    -144.251      41.314
  H     -257.778    -145.740      42.218

 6  7  8  9  10  11  12  13  14  15  25  28  32  33  34  35 0
 6-311+G(2d,p)
 ****
 36  37  40 0
 6-311+G(2d,p)
 ****
 1  2  3  4  5  16  17  18  19  20  21  22  23  24 0
 3-21G
 ****
 26  27  29  30  31  38  39 41  42  43  44  45  46  47  48 0
 3-21G
 ****


