%nproc=1
%NoSave
%Mem=1900MB
#P OB98/GEN NMR

erre ene a

0 1
  C     -210.871    -432.425    -465.748
  O     -211.549    -432.557    -466.994
  P     -211.325    -433.918    -467.819
  C     -212.890    -435.410    -466.362
  O     -211.561    -435.132    -466.786
  C     -213.318    -436.814    -466.790
  O     -212.230    -437.743    -466.509
  C     -214.578    -437.343    -466.082
  O     -215.283    -438.149    -467.025
  C     -213.969    -438.205    -464.979
  O     -214.883    -439.123    -464.389
  C     -212.791    -438.817    -465.727
  N     -210.597    -443.145    -464.082
  C     -211.526    -442.910    -465.039
  N     -212.056    -441.734    -465.426
  C     -211.525    -440.712    -464.722
  C     -210.584    -440.796    -463.707
  C     -210.109    -442.085    -463.391
  N     -209.161    -442.325    -462.409
  N     -210.292    -439.547    -463.198
  C     -211.051    -438.723    -463.897
  N     -211.796    -439.381    -464.835
  O     -209.748    -433.940    -468.066
  O     -212.099    -434.013    -469.103
  H     -214.579    -439.376    -463.496
  H     -209.531    -434.286    -468.952
  H     -211.899    -443.788    -465.561
  H     -211.101    -437.646    -463.742
  H     -213.110    -439.615    -466.416
  H     -213.621    -437.548    -464.168
  H     -215.242    -436.555    -465.717
  H     -213.474    -436.808    -467.885
  H     -213.581    -434.683    -466.816
  H     -209.039    -443.288    -462.123
  H     -208.961    -441.560    -461.767
  H     -212.955    -435.291    -465.269
  P     -216.889    -438.169    -466.977
  C     -217.001    -436.399    -468.852
  O     -217.316    -436.703    -467.506
  O     -217.158    -438.042    -465.405
  O     -217.543    -439.345    -467.628
  H     -216.658    -437.293    -465.022
  H     -217.426    -435.423    -469.097
  H     -217.435    -437.162    -469.521
  H     -215.920    -436.356    -468.984
  H     -211.109    -431.478    -465.311
  H     -209.815    -432.488    -465.908
  H     -211.180    -433.210    -465.089

 3  4  5  6  7  8  9  10  11  12  22  25  29  30  31  32 0
 6-311+G(2d,p)
 ****
 33  36  37 0
 6-311+G(2d,p)
 ****
 1  2  13  14  15  16  17  18  19  20  21  23  24  26 0
 3-21G
 ****
 27  28  34  35  38  39  40  41  42  43  44  45  46  47  48 0
 3-21G
 ****


