%nproc=1
%NoSave
%Mem=1900MB
#P OB98/GEN NMR

erre ene a

0 1
  C     -315.570    -302.272    -191.818
  O     -314.552    -303.236    -191.621
  H     -315.447    -301.449    -191.109
  H     -315.490    -301.881    -192.835
  H     -316.556    -302.730    -191.690
  P     -314.491    -303.919    -190.168
  C     -313.033    -303.615    -188.052
  O     -313.434    -303.070    -189.299
  C     -311.922    -302.756    -187.444
  O     -310.755    -302.861    -188.300
  C     -312.285    -301.267    -187.299
  O     -311.997    -300.801    -185.973
  C     -311.351    -300.565    -188.272
  O     -310.933    -299.284    -187.815
  C     -310.185    -301.543    -188.384
  N     -307.342    -298.280    -191.082
  C     -307.619    -298.341    -189.768
  N     -308.306    -299.286    -189.092
  C     -308.696    -300.277    -189.927
  C     -308.462    -300.364    -191.288
  C     -307.769    -299.294    -191.883
  N     -307.530    -299.202    -193.232
  N     -309.019    -301.519    -191.808
  C     -309.620    -302.092    -190.776
  N     -309.459    -301.370    -189.623
  O     -313.732    -305.304    -190.444
  O     -315.823    -304.144    -189.532
  H     -311.710    -298.847    -187.415
  H     -314.328    -306.042    -190.210
  H     -307.251    -297.510    -189.166
  H     -310.209    -303.001    -190.824
  H     -309.479    -301.431    -187.551
  H     -311.859    -300.443    -189.236
  H     -313.332    -301.065    -187.536
  H     -311.649    -303.178    -186.466
  H     -312.658    -304.634    -188.196
  H     -307.130    -298.347    -193.586
  H     -307.941    -299.903    -193.841
  H     -313.897    -303.650    -187.380
  P     -313.242    -300.207    -185.145
  C     -314.254    -297.855    -184.675
  O     -313.250    -298.606    -185.345
  O     -312.796    -300.408    -183.617
  O     -314.539    -300.892    -185.433
  H     -313.467    -300.926    -183.149
  H     -314.133    -296.816    -184.901
  H     -314.165    -298.003    -183.619
  H     -315.220    -298.181    -185.001

 6  7  8  9  10  11  12  13  14  15  25  28  32  33  34  35 0
 6-311+G(2d,p)
 ****
 36  39  40 0
 6-311+G(2d,p)
 ****
 1  2  3  4  5  16  17  18  19  20  21  22  23  24 0
 3-21G
 ****
 26  27  29  30  31  37  38  41  42  43  44  45  46  47  48 0
 3-21G
 ****


