%nproc=1
%NoSave
%Mem=1900MB
#P OB98/GEN NMR

erre ene a

0 1
  C       -1.496      45.395      43.816
  O       -1.425      46.234      42.671
  P       -0.328      45.897      41.550
  C        0.127      43.862      40.009
  O       -0.475      44.335      41.206
  C        0.994      42.633      40.276
  O        2.192      43.044      40.989
  C        0.317      41.547      41.117
  O        0.819      40.283      40.666
  C        0.841      41.818      42.514
  O        0.732      40.679      43.363
  C        2.270      42.248      42.191
  N        6.455      42.897      45.053
  C        6.184      42.051      44.036
  N        5.046      41.939      43.322
  C        4.126      42.818      43.754
  C        4.246      43.717      44.800
  C        5.482      43.744      45.468
  N        5.764      44.611      46.496
  N        3.078      44.432      44.960
  C        2.267      43.975      44.029
  N        2.866      43.016      43.261
  O        1.044      45.972      42.370
  O       -0.313      46.816      40.378
  H        1.184      39.930      42.929
  H        1.566      46.744      42.075
  H        6.992      41.381      43.755
  H        1.249      44.299      43.873
  H        2.923      41.390      41.985
  H        0.273      42.636      42.971
  H       -0.777      41.560      41.068
  H        1.319      42.224      39.311
  H        0.760      44.654      39.599
  H        6.712      44.664      46.830
  H        5.118      45.370      46.685
  H       -0.651      43.625      39.277
  P       -0.186      39.036      40.730
  C       -2.498      38.493      39.690
  O       -1.514      39.474      39.954
  O       -0.635      39.003      42.267
  O        0.423      37.740      40.306
  H       -0.872      38.093      42.525
  H       -3.484      38.963      39.726
  H       -2.467      37.677      40.420
  H       -2.336      38.083      38.690
  H       -2.270      45.745      44.467
  H       -0.559      45.416      44.332
  H       -1.713      44.393      43.511

 3  4  5  6  7  8  9  10  11  12  22  25  29  30  31  32 0
 6-311+G(2d,p)
 ****
 33  36  37 0
 6-311+G(2d,p)
 ****
 1  2  13  14  15  16  17  18  19  20  21  23  24  26 0
 3-21G
 ****
 27  28  34  35  38  39  40  41  42  43  44  45  46  47  48 0
 3-21G
 ****


