%nproc=1
%NoSave
%Mem=1900MB
#P OB98/GEN NMR

erre ene a

0 1
  C      388.343     113.755    -309.340
  O      389.320     114.316    -308.452
  P      389.333     115.863    -308.033
  C      391.750     116.564    -308.599
  O      390.811     116.275    -307.568
  C      393.190     116.332    -308.133
  O      393.347     114.991    -307.626
  C      394.247     116.480    -309.218
  O      394.490     117.843    -309.517
  C      395.425     115.746    -308.587
  O      396.132     116.595    -307.668
  C      394.719     114.599    -307.835
  N      394.808     113.329    -308.544
  C      395.317     112.245    -307.825
  O      395.719     112.399    -306.669
  N      395.383     111.020    -308.440
  C      395.041     110.904    -309.684
  N      395.119     109.664    -310.239
  C      394.583     112.039    -310.507
  C      394.490     113.210    -309.878
  O      388.263     116.237    -307.058
  O      389.138     116.665    -309.407
  H      396.383     117.396    -308.168
  H      388.663     117.499    -309.222
  H      394.336     111.906    -311.548
  H      394.154     114.093    -310.404
  H      395.152     114.474    -306.837
  H      396.151     115.398    -309.327
  H      393.928     115.942    -310.121
  H      393.391     117.028    -307.308
  H      395.428     108.904    -309.646
  H      391.628     117.614    -308.888
  H      394.875     109.463    -311.198
  H      391.526     115.933    -309.467
  P      394.646     118.309    -311.041
  C      396.647     119.916    -310.994
  O      395.237     119.796    -311.032
  O      393.448     118.106    -311.905
  O      395.886     117.444    -311.574
  H      395.758     117.265    -312.526
  H      396.926     120.896    -311.389
  H      397.125     119.139    -311.594
  H      396.988     119.839    -309.957
  H      388.537     112.711    -309.470
  H      388.398     114.248    -310.288
  H      387.366     113.888    -308.925

 3  4  5  6  7  8  9  10  11  12  13  23  27  28  29  30  32 0
 6-311+G(2d,p)
 ****
 34  35 0
 6-311+G(2d,p)
 ****
 1  2  14  15  16  17  18  19  20  21  22  24  25  26 0
 3-21G
 ****
 31  33  36  37  38  39  40  41  42  43  44  45  46 0
 3-21G
 ****


