%nproc=1
%NoSave
%Mem=1900MB
#P OB98/GEN NMR

erre ene a

0 1
  C     -242.368     511.313     277.687
  O     -242.423     510.030     278.281
  H     -242.595     512.080     278.428
  H     -241.357     511.481     277.302
  H     -243.075     511.375     276.858
  P     -243.820     509.598     278.944
  C     -244.755     509.422     281.357
  O     -243.682     509.853     280.527
  C     -244.212     508.606     282.528
  O     -243.670     507.365     282.008
  C     -243.109     509.306     283.341
  O     -243.492     509.413     284.715
  C     -241.914     508.362     283.246
  O     -241.198     508.241     284.473
  C     -242.544     507.036     282.829
  N     -238.754     503.661     283.346
  C     -239.751     504.021     284.185
  N     -240.793     504.847     283.950
  C     -240.757     505.299     282.681
  C     -239.821     505.010     281.705
  C     -238.765     504.159     282.084
  N     -237.720     503.838     281.250
  N     -240.115     505.672     280.528
  C     -241.185     506.390     280.802
  N     -241.600     506.213     282.100
  O     -243.808     507.999     278.818
  O     -245.031     510.192     278.309
  H     -241.863     508.121     285.177
  H     -244.661     507.693     278.456
  H     -239.704     503.591     285.183
  H     -241.671     507.084     280.125
  H     -242.908     506.462     283.691
  H     -241.223     508.738     282.479
  H     -242.856     510.300     282.948
  H     -245.053     508.342     283.181
  H     -245.444     508.798     280.773
  H     -236.949     503.319     281.640
  H     -237.667     504.291     280.347
  H     -245.301     510.300     281.715
  P     -244.516     510.594     285.088
  C     -244.328     513.136     285.630
  O     -243.647     511.922     285.337
  O     -245.003     510.193     286.558
  O     -245.660     510.734     284.140
  H     -245.895     510.558     286.732
  H     -243.614     513.921     285.768
  H     -244.903     513.015     286.524
  H     -244.979     513.385     284.818

 6  7  8  9  10  11  12  13  14  15  25  28  32  33  34  35 0
 6-311+G(2d,p)
 ****
 36  39  40 0
 6-311+G(2d,p)
 ****
 1  2  3  4  5  16  17  18  19  20  21  22  23  24 0
 3-21G
 ****
 26  27  29  30  31  37  38  41  42  43  44  45  46  47  48 0
 3-21G
 ****


