%nproc=1
%NoSave
%Mem=1900MB
#P OB98/GEN NMR

erre ene a

0 1
  C      102.900     243.874      96.604
  O      101.857     243.591      97.542
  P      102.323     243.303      99.052
  C      102.107     240.722      98.945
  O      102.976     241.836      99.095
  C      102.875     239.463      98.531
  O      103.482     239.629      97.215
  C      104.003     239.083      99.496
  O      104.073     237.650      99.515
  C      105.237     239.628      98.803
  O      106.429     239.024      99.298
  C      104.884     239.307      97.351
  N      107.719     238.867      93.197
  C      107.138     237.892      93.985
  N      107.292     236.614      93.578
  N      106.462     238.148      95.076
  C      106.355     239.475      95.337
  C      106.871     240.534      94.628
  C      107.644     240.234      93.441
  O      108.175     241.058      92.706
  N      106.522     241.739      95.194
  C      105.855     241.392      96.282
  N      105.680     240.039      96.384
  O      100.938     243.130      99.833
  O      103.161     244.391      99.638
  H      106.282     238.054      99.319
  H      100.719     243.950     100.313
  H      108.243     238.612      92.378
  H      105.456     242.077      97.010
  H      105.017     238.242      97.117
  H      105.310     240.712      98.956
  H      107.758     236.350      92.721
  H      103.882     239.470     100.512
  H      106.842     235.884      94.115
  H      102.158     238.635      98.456
  H      101.347     240.941      98.190
  H      101.565     240.565      99.885
  P      103.242     236.875     100.642
  C      104.862     236.612     102.643
  O      103.806     237.349     102.063
  O      103.775     235.369     100.514
  O      101.759     236.934     100.474
  H      103.032     234.748     100.642
  H      105.428     237.269     103.308
  H      105.541     236.208     101.886
  H      104.448     235.788     103.230
  H      102.474     244.048      95.638
  H      103.570     243.041      96.553
  H      103.437     244.744      96.919

 3  4  5  6  7  8  9  10  11  12  23  26  30  31 0
 6-311+G(2d,p)
 ****
 33  35  36  37  38 0
 6-311+G(2d,p)
 ****
 1  2  13  14  15  16  17  18  19  20  21  22  24  25 0
 3-21G
 ****
 27  28  29  32  34  39  40  41  42  43  44  45  46  47  48  49 0
 3-21G
 ****


