%nproc=1
%NoSave
%Mem=1900MB
#P OB98/GEN NMR

erre ene a

0 1
  C       30.221     111.368    -170.240
  O       29.468     111.424    -171.459
  P       29.515     110.279    -172.584
  C       31.671     110.829    -173.909
  O       31.056     109.990    -172.938
  C       33.078     110.333    -174.247
  O       33.922     110.376    -173.071
  C       33.158     108.884    -174.708
  O       32.674     108.710    -176.028
  C       34.654     108.604    -174.546
  O       35.397     109.047    -175.691
  C       35.017     109.462    -173.319
  N       35.312     108.668    -172.137
  C       36.605     108.145    -172.041
  O       37.406     108.295    -172.961
  N       36.948     107.455    -170.904
  C       36.053     107.215    -170.000
  N       36.455     106.539    -168.889
  C       34.645     107.630    -170.128
  C       34.349     108.349    -171.209
  O       28.668     110.569    -173.778
  O       29.032     108.943    -171.844
  H       28.642     108.331    -172.497
  H       35.007     108.602    -176.470
  H       33.919     107.372    -169.369
  H       33.337     108.709    -171.374
  H       35.878     110.103    -173.549
  H       34.861     107.536    -174.420
  H       32.595     108.251    -174.015
  H       33.503     111.002    -175.009
  H       37.433     106.277    -168.827
  H       31.744     111.844    -173.494
  H       35.845     106.319    -168.115
  H       31.042     110.869    -174.805
  P       31.209     108.068    -176.183
  C       31.817     105.579    -175.759
  O       31.162     106.742    -175.286
  O       31.201     107.515    -177.686
  O       30.089     109.022    -175.950
  H       30.326     107.669    -178.087
  H       32.112     104.971    -174.900
  H       32.707     105.822    -176.344
  H       31.124     105.004    -176.375
  H       30.022     112.243    -169.657
  H       31.265     111.321    -170.468
  H       29.938     110.498    -169.685

 3  4  5  6  7  8  9  10  11  12  13  24  27  28  29  30  32 0
 6-311+G(2d,p)
 ****
 34  35 0
 6-311+G(2d,p)
 ****
 1  2  14  15  16  17  18  19  20  21  22  23  25  26 0
 3-21G
 ****
 31  33  36  37  38  39  40  41  42  43  44  45  46 0
 3-21G
 ****


