%nproc=1
%NoSave
%Mem=1900MB
#P OB98/GEN NMR

erre ene a

0 1
  C     -340.150    -779.990     189.818
  O     -340.204    -780.543     188.514
  P     -341.599    -780.697     187.725
  C     -341.574    -783.243     188.106
  O     -342.285    -782.029     188.309
  C     -341.684    -783.720     186.660
  O     -340.769    -784.824     186.431
  C     -343.095    -784.185     186.244
  O     -343.246    -783.830     184.864
  C     -342.985    -785.690     186.396
  O     -343.999    -786.391     185.667
  C     -341.545    -785.940     185.924
  N     -341.026    -787.221     186.381
  C     -341.656    -788.368     185.883
  O     -342.638    -788.267     185.151
  N     -341.175    -789.597     186.258
  C     -340.238    -789.681     187.149
  N     -339.799    -790.934     187.486
  C     -339.626    -788.498     187.798
  C     -340.061    -787.304     187.363
  O     -341.499    -780.643     186.242
  O     -342.509    -779.537     188.353
  H     -344.863    -786.214     186.104
  H     -342.264    -778.657     187.971
  H     -338.885    -788.612     188.569
  H     -339.678    -786.391     187.779
  H     -341.483    -785.899     184.830
  H     -343.088    -785.961     187.451
  H     -343.898    -783.748     186.844
  H     -341.357    -782.888     186.008
  H     -340.229    -791.710     186.996
  H     -342.009    -784.002     188.764
  H     -339.020    -791.096     188.096
  H     -340.520    -783.112     188.394
  P     -344.681    -783.519     184.237
  C     -344.670    -785.893     183.267
  O     -345.406    -784.934     183.996
  O     -344.679    -782.605     183.050
  O     -345.517    -782.880     185.454
  H     -346.308    -782.430     185.100
  H     -345.128    -786.882     183.401
  H     -343.635    -785.927     183.603
  H     -344.682    -785.641     182.196
  H     -339.136    -779.978     190.159
  H     -340.742    -780.584     190.482
  H     -340.531    -778.990     189.798

 3  4  5  6  7  8  9  10  11  12  13  23  27  28  29  30  32 0
 6-311+G(2d,p)
 ****
 34  35 0
 6-311+G(2d,p)
 ****
 1  2  14  15  16  17  18  19  20  21  22  24  25  26 0
 3-21G
 ****
 31  33  36  37  38  39  40  41  42  43  44  45  46 0
 3-21G
 ****


