%nproc=1
%NoSave
%Mem=1900MB
#P OB98/GEN NMR

erre ene a

0 1
  C      137.158     249.085    1101.935
  O      136.204     250.078    1102.275
  P      136.683     251.493    1102.851
  C      137.977     250.817    1104.986
  O      136.751     251.328    1104.448
  C      138.312     251.542    1106.275
  O      138.444     252.978    1106.060
  C      137.238     251.422    1107.371
  O      137.020     250.132    1107.916
  C      137.686     252.502    1108.327
  O      138.745     252.089    1109.185
  C      138.185     253.600    1107.347
  N      137.231     254.717    1107.211
  C      137.665     255.939    1107.712
  O      138.764     256.117    1108.223
  N      136.753     256.979    1107.618
  C      135.484     256.885    1107.150
  O      134.705     257.833    1107.130
  C      135.087     255.550    1106.649
  C      135.949     254.540    1106.694
  O      135.890     252.683    1102.374
  O      138.242     251.551    1102.460
  H      138.951     252.840    1109.780
  H      138.791     250.823    1102.826
  H      137.043     257.869    1107.982
  H      134.087     255.457    1106.251
  H      135.695     253.558    1106.348
  H      139.146     254.029    1107.697
  H      136.850     252.829    1108.977
  H      136.283     251.735    1106.939
  H      139.303     251.182    1106.627
  H      138.762     250.987    1104.260
  H      137.898     249.732    1105.139
  P      135.581     249.623    1108.371
  C      135.094     250.886    1110.599
  O      135.512     249.669    1109.980
  O      135.071     248.366    1107.719
  O      134.640     250.865    1107.960
  H      133.752     250.520    1107.708
  H      135.165     250.773    1111.688
  H      134.068     251.120    1110.312
  H      135.746     251.700    1110.290
  H      136.653     248.215    1101.570
  H      137.730     248.828    1102.802
  H      137.811     249.463    1101.176

 3  4  5  6  7  8  9  10  11  12  13  23  28  29  30  31  32 0
 6-311+G(2d,p)
 ****
 33  34 0
 6-311+G(2d,p)
 ****
 1  2  14  15  16  17  18  19  20  21  22  24  25  26  27 0
 3-21G
 ****
 35  36  37  38  39  40  41  42  43  44  45 0
 3-21G
 ****


