%nproc=1
%NoSave
%Mem=1900MB
#P OB98/GEN NMR

erre ene a

0 1
  C      360.133     191.488     560.261
  O      360.979     190.942     559.267
  H      360.108     192.575     560.145
  H      360.515     191.249     561.261
  H      359.115     191.101     560.149
  P      361.220     189.359     559.246
  C      363.250     189.337     560.846
  O      361.879     188.990     560.662
  C      364.143     188.121     560.582
  O      365.520     188.436     560.858
  C      363.806     186.898     561.441
  O      362.703     186.185     560.883
  C      365.107     186.122     561.345
  O      365.192     185.469     560.062
  C      366.157     187.251     561.427
  N      369.134     185.840     565.289
  C      368.825     185.183     564.116
  N      369.373     183.945     563.968
  N      368.052     185.667     563.183
  C      367.521     186.873     563.496
  C      367.734     187.623     564.643
  C      368.651     187.101     565.635
  O      368.964     187.664     566.682
  N      366.952     188.747     564.648
  C      366.311     188.711     563.499
  N      366.612     187.586     562.764
  O      361.971     188.817     558.068
  O      359.753     188.736     559.359
  H      366.018     184.955     560.055
  H      359.367     188.568     558.478
  H      369.727     185.418     565.975
  H      365.625     189.466     563.142
  H      367.040     187.041     560.826
  H      365.200     185.351     562.112
  H      369.851     183.460     564.710
  H      363.626     187.168     562.486
  H      369.108     183.419     563.138
  H      364.069     187.880     559.509
  H      363.368     189.675     561.880
  H      363.534     190.149     560.174
  P      361.258     186.190     561.591
  C      361.405     183.632     561.975
  O      361.259     184.916     562.560
  O      360.107     186.269     560.642
  O      361.335     187.401     562.630
  H      361.113     188.286     562.218
  H      361.387     182.886     562.742
  H      362.337     183.583     561.451
  H      360.601     183.459     561.290

 6  7  8  9  10  11  12  13  14  15  26  29  33  34 0
 6-311+G(2d,p)
 ****
 36  38  39  40  41 0
 6-311+G(2d,p)
 ****
 1  2  3  4  5  16  17  18  19  20  21  22  23  24  25 0
 3-21G
 ****
 27  28  30  31  32  35  37  42  43  44  45  46  47 0
 3-21G
 ****
 48  49 0
 3-21G
 ****


