%nproc=1
%NoSave
%Mem=1900MB
#P OB98/GEN NMR

erre ene a

0 1
  C      788.565    -898.640     657.306
  O      787.349    -898.450     656.619
  H      788.391    -898.490     658.378
  H      789.312    -897.920     656.963
  H      788.932    -899.660     657.146
  P      787.388    -898.600     655.017
  C      784.955    -897.690     654.994
  O      786.284    -897.560     654.497
  C      784.108    -896.490     654.552
  O      784.571    -895.290     655.184
  C      784.116    -896.240     653.054
  O      783.176    -897.070     652.411
  C      783.679    -894.770     653.024
  O      782.241    -894.690     653.155
  C      784.347    -894.170     654.265
  N      786.646    -890.050     652.222
  C      785.375    -890.520     652.125
  N      784.831    -891.650     652.643
  C      785.788    -892.330     653.352
  C      787.114    -891.990     653.526
  C      787.539    -890.780     652.931
  N      788.828    -890.310     653.024
  N      787.767    -892.920     654.312
  C      786.823    -893.800     654.626
  N      785.612    -893.500     654.041
  O      787.273    -900.000     654.499
  O      788.767    -897.860     654.672
  H      782.021    -893.720     653.124
  H      788.862    -897.060     655.229
  H      784.696    -889.920     651.539
  H      786.961    -894.640     655.303
  H      783.695    -893.480     654.780
  H      783.942    -894.280     652.093
  H      785.122    -896.320     652.627
  H      783.071    -896.670     654.923
  H      784.981    -897.760     656.084
  H      789.098    -889.570     652.418
  H      789.533    -890.920     653.452
  H      784.542    -898.630     654.595
  P      783.272    -897.360     650.829
  C      780.947    -896.290     650.530
  O      782.316    -896.280     650.138
  O      783.022    -898.790     650.448
  O      784.739    -896.860     650.431
  H      785.000    -897.230     649.566
  H      780.419    -895.526     650.000
  H      780.876    -896.108     651.582
  H      780.518    -897.244     650.303

 6  7  8  9  10  11  12  13  14  15  25  28  32  33  34  35 0
 6-311+G(2d,p)
 ****
 36  39  40 0
 6-311+G(2d,p)
 ****
 1  2  3  4  5  16  17  18  19  20  21  22  23  24 0
 3-21G
 ****
 26  27  29  30  31  37  38  41  42  43  44  45  46  47 0
 3-21G
 ****
 48 0
 3-21G
 ****


