%nproc=1
%NoSave
%Mem=1900MB
#P OB98/GEN NMR

erre ene a

0 1
  C     -167.661     323.247     -21.184
  O     -168.937     323.879     -21.110
  P     -169.122     325.154     -20.153
  C     -169.898     324.020     -17.982
  O     -168.840     324.706     -18.637
  C     -169.404     323.170     -16.803
  O     -168.621     323.974     -15.877
  C     -170.523     322.504     -15.992
  O     -170.030     321.227     -15.565
  C     -170.670     323.442     -14.810
  O     -171.342     322.839     -13.716
  C     -169.206     323.815     -14.569
  N     -169.058     325.017     -13.763
  C     -168.516     324.867     -12.487
  O     -168.279     323.742     -12.045
  N     -168.286     325.993     -11.735
  C     -168.703     327.146     -12.164
  N     -168.439     328.239     -11.400
  C     -169.442     327.313     -13.429
  C     -169.559     326.224     -14.180
  O     -170.380     325.931     -20.357
  O     -167.835     326.045     -20.498
  H     -171.589     323.536     -13.070
  H     -168.080     326.990     -20.438
  H     -169.843     328.277     -13.704
  H     -170.078     326.246     -15.129
  H     -168.672     322.993     -14.073
  H     -171.245     324.328     -15.112
  H     -171.446     322.359     -16.560
  H     -168.736     322.397     -17.203
  H     -167.954     328.105     -10.524
  H     -170.402     323.370     -18.703
  H     -168.685     329.177     -11.690
  H     -170.647     324.747     -17.654
  P     -170.648     319.900     -16.221
  C     -172.642     319.819     -14.553
  O     -172.218     319.874     -15.900
  O     -170.090     318.761     -15.233
  O     -170.237     319.604     -17.625
  H     -170.056     317.914     -15.717
  H     -173.699     320.091     -14.509
  H     -172.079     320.519     -13.929
  H     -172.522     318.802     -14.167
  H     -167.711     322.421     -21.862
  H     -167.380     322.896     -20.213
  H     -166.934     323.951     -21.533

 3  4  5  6  7  8  9  10  11  12  13  23  27  28  29  30  32 0
 6-311+G(2d,p)
 ****
 34  35 0
 6-311+G(2d,p)
 ****
 1  2  14  15  16  17  18  19  20  21  22  24  25  26 0
 3-21G
 ****
 31  33  36  37  38  39  40  41  42  43  44  45  46 0
 3-21G
 ****


