%nproc=1
%NoSave
%Mem=1900MB
#P OB98/GEN NMR

erre ene a

0 1
  C       -3.788    -219.189    -392.170
  O       -4.991    -219.769    -391.709
  H       -3.277    -218.731    -391.321
  H       -3.991    -218.418    -392.918
  H       -3.136    -219.958    -392.595
  P       -5.990    -220.412    -392.786
  C       -4.717    -222.627    -393.201
  O       -5.103    -221.364    -393.723
  C       -5.189    -223.765    -394.117
  O       -4.537    -223.628    -395.411
  C       -4.853    -225.173    -393.585
  O       -5.869    -226.062    -394.065
  C       -3.531    -225.445    -394.275
  O       -3.183    -226.802    -394.203
  C       -3.812    -224.855    -395.660
  N       -2.602    -224.626    -396.434
  C       -2.242    -225.643    -397.329
  O       -2.927    -226.662    -397.422
  N       -1.100    -225.490    -398.073
  C       -0.345    -224.451    -397.884
  N        0.784    -224.366    -398.646
  C       -0.660    -223.384    -396.908
  C       -1.795    -223.536    -396.227
  O       -6.866    -219.449    -393.517
  O       -6.859    -221.454    -391.934
  H       -3.287    -227.147    -393.289
  H       -7.754    -221.092    -391.786
  H        0.011    -222.548    -396.780
  H       -2.111    -222.811    -395.486
  H       -4.478    -225.516    -396.237
  H       -2.719    -224.886    -393.790
  H       -4.800    -225.210    -392.492
  H       -6.263    -223.656    -394.290
  H        0.962    -225.121    -399.297
  H       -5.177    -222.729    -392.212
  H        1.455    -223.617    -398.572
  H       -3.627    -222.675    -393.090
  P       -6.842    -226.881    -393.085
  C       -8.725    -225.119    -392.985
  O       -7.743    -225.851    -392.255
  O       -6.141    -227.898    -392.244
  O       -7.898    -227.599    -394.059
  H       -8.186    -228.442    -393.656
  H       -9.255    -224.471    -392.319
  H       -9.412    -225.801    -393.441
  H       -8.245    -224.536    -393.743

 6  7  8  9  10  11  12  13  14  15  16  26  30  31  32  33  35 0
 6-311+G(2d,p)
 ****
 37  38 0
 6-311+G(2d,p)
 ****
 1  2  3  4  5  17  18  19  20  21  22  23  24  25 0
 3-21G
 ****
 27  28  29  34  36  39  40  41  42  43  44  45  46 0
 3-21G
 ****


