%nproc=1
%NoSave
%Mem=1900MB
#P OB98/GEN NMR

erre ene a

0 1
  C      403.376     309.603      15.076
  O      402.151     309.282      14.423
  P      402.240     308.454      13.053
  C      401.288     306.153      13.786
  O      402.447     306.921      13.483
  C      401.029     305.118      12.695
  O      402.220     304.335      12.460
  C      399.928     304.120      13.010
  O      398.636     304.633      12.752
  C      400.264     302.999      12.035
  O      399.771     303.345      10.722
  C      401.796     303.005      12.050
  N      402.629     298.014      12.799
  C      401.973     298.679      11.829
  N      401.781     300.009      11.713
  C      402.324     300.668      12.746
  C      402.991     300.112      13.839
  C      403.145     298.719      13.841
  N      403.844     298.049      14.818
  N      403.396     301.107      14.701
  C      402.999     302.228      14.151
  N      402.350     302.019      12.964
  O      403.676     308.867      12.468
  O      401.136     308.720      12.083
  H      400.081     304.236      10.532
  H      403.691     308.733      11.504
  H      401.554     298.060      11.036
  H      403.160     303.220      14.567
  H      402.226     302.821      11.066
  H      399.797     302.050      12.305
  H      400.021     303.739      14.044
  H      400.800     305.658      11.766
  H      400.423     306.817      13.861
  H      404.067     297.070      14.657
  H      404.393     298.592      15.474
  H      401.426     305.659      14.750
  P      397.652     304.818      14.024
  C      397.927     307.400      14.064
  O      398.135     306.174      14.726
  O      398.144     303.670      15.017
  O      396.208     304.721      13.690
  H      397.414     303.412      15.618
  H      398.023     308.220      14.792
  H      396.941     307.450      13.615
  H      398.687     307.542      13.291
  H      403.170     310.152      15.971
  H      403.982     310.197      14.425
  H      403.896     308.701      15.323

 3  4  5  6  7  8  9  10  11  12  22  25  29  30  31  32 0
 6-311+G(2d,p)
 ****
 33  36  37 0
 6-311+G(2d,p)
 ****
 1  2  13  14  15  16  17  18  19  20  21  23  24  26 0
 3-21G
 ****
 27  28  34  35  38  39  40  41  42  43  44  45  46  47  48 0
 3-21G
 ****


