%nproc=1
%NoSave
%Mem=1900MB
#P OB98/GEN NMR

erre ene a

0 1
  C     -135.090      77.102     -11.442
  O     -135.692      76.140     -10.595
  H     -135.166      78.084     -10.968
  H     -135.602      77.145     -12.408
  H     -134.034      76.864     -11.595
  P     -135.846      74.641     -11.141
  C     -138.430      74.509     -11.114
  O     -137.252      74.606     -11.907
  C     -139.665      74.752     -11.977
  O     -139.684      76.115     -12.447
  C     -139.705      73.882     -13.225
  O     -140.080      72.557     -12.905
  C     -140.691      74.653     -14.079
  O     -142.044      74.383     -13.688
  C     -140.303      76.114     -13.754
  N     -139.416      76.699     -14.754
  C     -139.235      78.085     -14.679
  O     -139.799      78.740     -13.805
  N     -138.432      78.689     -15.615
  C     -137.851      77.979     -16.529
  N     -137.070      78.640     -17.425
  C     -138.005      76.515     -16.634
  C     -138.797      75.948     -15.727
  O     -135.658      73.537     -10.146
  O     -134.781      74.563     -12.334
  H     -142.149      74.782     -12.802
  H     -133.914      74.270     -11.998
  H     -137.497      75.962     -17.410
  H     -138.963      74.875     -15.731
  H     -141.199      76.743     -13.681
  H     -140.594      74.398     -15.133
  H     -138.733      73.899     -13.728
  H     -140.557      74.596     -11.357
  H     -137.001      79.647     -17.320
  H     -138.358      75.271     -10.332
  H     -136.502      78.184     -18.121
  H     -138.493      73.525     -10.634
  P     -139.519      71.322     -13.761
  C     -141.848      71.109     -14.851
  O     -140.447      71.256     -15.071
  O     -139.377      70.040     -13.011
  O     -138.131      71.879     -14.335
  H     -137.438      71.914     -13.632
  H     -142.356      71.078     -15.792
  H     -142.208      71.938     -14.279
  H     -142.032      70.200     -14.316

 6  7  8  9  10  11  12  13  14  15  16  26  30  31  32  33  35 0
 6-311+G(2d,p)
 ****
 37  38 0
 6-311+G(2d,p)
 ****
 1  2  3  4  5  17  18  19  20  21  22  23  24  25 0
 3-21G
 ****
 27  28  29  34  36  39  40  41  42  43  44  45  46 0
 3-21G
 ****


