%nproc=1
%NoSave
%Mem=1900MB
#P OB98/GEN NMR

erre ene a

0 1
  C     -108.434      17.495     376.704
  O     -107.826      18.241     377.762
  P     -108.757      19.011     378.816
  C     -107.618      21.335     378.672
  O     -107.918      20.203     379.487
  C     -106.421      22.093     379.251
  O     -105.187      21.356     379.070
  C     -106.174      23.433     378.555
  O     -107.130      24.453     378.778
  C     -104.732      23.733     378.935
  O     -104.643      24.327     380.232
  C     -104.115      22.315     378.948
  N     -103.294      22.048     377.759
  C     -101.922      22.204     377.910
  O     -101.402      22.584     378.961
  N     -101.161      21.943     376.804
  C     -101.638      21.576     375.575
  O     -100.912      21.375     374.607
  C     -103.100      21.450     375.465
  C     -103.851      21.690     376.546
  O     -109.512      18.149     379.769
  O     -109.777      19.812     377.861
  H     -104.900      25.266     380.135
  H     -110.666      19.760     378.264
  H     -100.164      22.032     376.897
  H     -103.510      21.174     374.503
  H     -104.929      21.599     376.485
  H     -103.469      22.183     379.827
  H     -104.267      24.429     378.230
  H     -106.182      23.251     377.473
  H     -106.574      22.221     380.324
  H     -108.491      21.990     378.614
  H     -107.417      20.994     377.650
  P     -107.381      25.661     377.756
  C     -108.483      27.135     379.587
  O     -108.602      26.544     378.306
  O     -107.371      25.333     376.299
  O     -106.122      26.608     378.074
  H     -105.854      27.059     377.240
  H     -109.409      27.684     379.806
  H     -107.651      27.842     379.601
  H     -108.348      26.368     380.354
  H     -107.673      17.049     376.099
  H     -109.030      18.150     376.103
  H     -109.055      16.728     377.119

 3  4  5  6  7  8  9  10  11  12  13  23  28  29  30  31  32 0
 6-311+G(2d,p)
 ****
 33  34 0
 6-311+G(2d,p)
 ****
 1  2  14  15  16  17  18  19  20  21  22  24  25  26  27 0
 3-21G
 ****
 35  36  37  38  39  40  41  42  43  44  45 0
 3-21G
 ****


