%nproc=1
%NoSave
%Mem=1900MB
#P OB98/GEN NMR

erre ene a

0 1
  C     -894.950     903.235     395.466
  O     -895.010     901.867     395.859
  P     -896.430     901.259     396.283
  C     -895.750     900.917     398.778
  O     -896.220     900.285     397.564
  C     -895.540     899.858     399.869
  O     -896.820     899.293     400.256
  C     -894.720     898.655     399.401
  O     -893.350     898.882     399.154
  C     -895.080     897.614     400.420
  O     -894.320     897.741     401.616
  C     -896.580     897.937     400.715
  N     -897.520     896.997     400.057
  C     -898.060     896.031     400.882
  O     -897.820     895.928     402.081
  N     -898.940     895.156     400.259
  C     -899.240     895.134     398.947
  O     -900.000     894.319     398.426
  C     -898.590     896.169     398.120
  C     -897.740     897.024     398.698
  O     -897.230     900.643     395.171
  O     -897.210     902.478     396.901
  H     -893.410     897.469     401.397
  H     -898.140     902.453     396.608
  H     -899.380     894.461     400.850
  H     -898.810     896.166     397.053
  H     -897.260     897.796     398.116
  H     -896.790     897.900     401.791
  H     -894.900     896.604     400.042
  H     -895.150     898.318     398.435
  H     -895.100     900.344     400.746
  H     -896.470     901.676     399.098
  H     -894.800     901.448     398.552
  P     -892.800     899.721     397.899
  C     -892.040     897.617     396.602
  O     -891.670     898.863     397.187
  O     -892.530     901.181     398.109
  O     -894.040     899.572     396.869
  H     -894.080     900.391     396.326
  H     -891.130     897.138     396.159
  H     -892.760     897.782     395.780
  H     -892.440     896.939     397.356
  H     -893.942     903.490     395.214
  H     -895.283     903.853     396.273
  H     -895.580     903.390     394.615

 3  4  5  6  7  8  9  10  11  12  13  23  28  29  30  31  32 0
 6-311+G(2d,p)
 ****
 33  34 0
 6-311+G(2d,p)
 ****
 1  2  14  15  16  17  18  19  20  21  22  24  25  26  27 0
 3-21G
 ****
 35  36  37  38  39  40  41  42  43  44  45 0
 3-21G
 ****


