%nproc=1
%NoSave
%Mem=1900MB
#P OB98/GEN NMR

erre ene a

0 1
  C     -553.734    -579.396    -356.730
  O     -554.538    -578.339    -357.206
  H     -553.140    -579.034    -355.883
  H     -553.054    -579.744    -357.515
  H     -554.362    -580.222    -356.390
  P     -555.450    -578.647    -358.486
  C     -557.650    -577.427    -357.924
  O     -556.408    -577.361    -358.618
  C     -557.461    -577.029    -356.461
  O     -556.933    -575.676    -356.407
  C     -558.757    -577.055    -355.643
  O     -558.465    -577.498    -354.315
  C     -559.168    -575.597    -355.609
  O     -560.026    -575.299    -354.505
  C     -557.805    -574.905    -355.567
  N     -558.932    -570.150    -354.136
  C     -558.767    -571.290    -353.431
  N     -558.442    -572.520    -353.894
  C     -558.230    -572.478    -355.224
  C     -558.353    -571.395    -356.074
  C     -558.742    -570.176    -355.479
  N     -558.943    -569.018    -356.185
  N     -558.099    -571.768    -357.373
  C     -557.807    -573.058    -357.314
  N     -557.893    -573.531    -356.035
  O     -556.153    -579.964    -358.475
  O     -554.418    -578.433    -359.692
  H     -560.777    -575.930    -354.514
  H     -553.905    -577.610    -359.577
  H     -558.926    -571.209    -352.364
  H     -557.548    -573.687    -358.161
  H     -557.382    -574.878    -354.551
  H     -559.707    -575.332    -356.527
  H     -559.524    -577.688    -356.083
  H     -556.698    -577.689    -356.015
  H     -558.068    -578.436    -357.986
  H     -559.212    -568.193    -355.677
  H     -558.796    -569.020    -357.184
  H     -558.344    -576.737    -358.419
  P     -557.574    -578.810    -354.113
  C     -555.464    -578.461    -352.671
  O     -556.857    -578.727    -352.667
  O     -556.670    -579.163    -355.243
  O     -558.677    -579.952    -353.876
  H     -558.408    -580.765    -354.365
  H     -555.104    -578.430    -351.664
  H     -555.282    -577.519    -353.144
  H     -554.955    -579.234    -353.208

 6  7  8  9  10  11  12  13  14  15  25  28  32  33  34  35 0
 6-311+G(2d,p)
 ****
 36  39  40 0
 6-311+G(2d,p)
 ****
 1  2  3  4  5  16  17  18  19  20  21  22  23  24 0
 3-21G
 ****
 26  27  29  30  31  37  38  41  42  43  44  45  46  47 0
 3-21G
 ****
 48 0
 3-21G
 ****


