%nproc=1
%NoSave
%Mem=1900MB
#P OB98/GEN NMR

erre ene a

0 1
  C     -269.253    -271.849     112.730
  O     -268.800    -270.602     113.210
  P     -267.307    -270.116     112.910
  C     -264.919    -270.832     113.538
  O     -266.307    -270.948     113.848
  C     -264.075    -271.163     114.770
  O     -264.054    -272.583     115.023
  C     -262.610    -270.760     114.633
  O     -262.429    -269.367     114.721
  C     -261.992    -271.563     115.767
  O     -262.173    -270.898     117.029
  C     -262.817    -272.860     115.723
  N     -262.099    -273.963     115.103
  C     -261.164    -274.622     115.910
  O     -260.925    -274.218     117.043
  N     -260.513    -275.721     115.402
  C     -260.690    -276.058     114.158
  N     -260.066    -277.182     113.729
  C     -261.546    -275.285     113.229
  C     -262.227    -274.279     113.769
  O     -267.098    -268.639     112.930
  O     -266.995    -270.712     111.456
  H     -266.642    -269.989     110.890
  H     -261.634    -270.088     116.990
  H     -261.602    -275.565     112.188
  H     -262.900    -273.675     113.170
  H     -263.115    -273.159     116.737
  H     -260.911    -271.708     115.634
  H     -262.219    -271.125     113.672
  H     -264.527    -270.658     115.632
  H     -259.506    -277.694     114.392
  H     -264.719    -269.809     113.208
  H     -260.385    -277.701     112.911
  H     -264.683    -271.514     112.713
  P     -261.399    -268.699     113.686
  C     -259.032    -269.253     112.785
  O     -260.073    -269.606     113.675
  O     -260.937    -267.358     114.428
  O     -261.977    -268.399     112.338
  H     -260.809    -266.643     113.779
  H     -258.106    -269.726     113.138
  H     -258.886    -268.172     112.745
  H     -259.262    -269.637     111.786
  H     -270.270    -271.998     113.029
  H     -268.644    -272.630     113.135
  H     -269.189    -271.865     111.662

 3  4  5  6  7  8  9  10  11  12  13  24  27  28  29  30  32 0
 6-311+G(2d,p)
 ****
 34  35 0
 6-311+G(2d,p)
 ****
 1  2  14  15  16  17  18  19  20  21  22  23  25  26 0
 3-21G
 ****
 31  33  36  37  38  39  40  41  42  43  44  45  46 0
 3-21G
 ****


