%nproc=1
%NoSave
%Mem=1900MB
#P OB98/GEN NMR

erre ene a

0 1
  C     -908.283    -179.400    -616.823
  O     -907.050    -180.068    -617.025
  P     -906.229    -179.716    -618.364
  C     -903.955    -179.189    -617.213
  O     -905.088    -178.668    -617.908
  C     -903.622    -178.319    -616.011
  O     -904.700    -178.366    -615.051
  C     -902.378    -178.739    -615.250
  O     -901.190    -178.272    -615.877
  C     -902.598    -178.045    -613.907
  O     -902.194    -176.662    -614.014
  C     -904.125    -178.146    -613.740
  N     -904.615    -179.625    -608.915
  C     -904.144    -178.433    -609.437
  N     -903.778    -177.479    -608.537
  N     -904.045    -178.184    -610.709
  C     -904.478    -179.198    -611.489
  C     -904.954    -180.431    -611.094
  C     -905.024    -180.713    -609.680
  O     -905.362    -181.770    -609.163
  N     -905.311    -181.197    -612.178
  C     -905.096    -180.428    -613.223
  N     -904.546    -179.211    -612.860
  O     -907.252    -178.798    -619.193
  O     -905.773    -180.890    -619.159
  H     -901.292    -176.662    -614.372
  H     -907.056    -178.843    -620.139
  H     -904.679    -179.757    -607.917
  H     -905.310    -180.692    -614.253
  H     -904.548    -177.197    -613.368
  H     -902.026    -178.488    -613.096
  H     -903.964    -177.560    -607.548
  H     -902.353    -179.828    -615.088
  H     -903.470    -176.582    -608.901
  H     -903.528    -177.278    -616.362
  H     -903.103    -179.201    -617.890
  H     -904.179    -180.219    -616.894
  P     -899.901    -179.261    -615.800
  C     -899.106    -179.526    -618.255
  O     -899.902    -180.033    -617.198
  O     -900.366    -180.374    -614.742
  O     -898.640    -178.577    -615.401
  H     -899.590    -180.774    -614.324
  H     -898.160    -179.099    -617.884
  H     -899.646    -178.755    -618.800
  H     -898.859    -180.346    -618.939
  H     -908.719    -179.726    -615.902
  H     -908.947    -179.625    -617.631
  H     -908.114    -178.344    -616.784

 3  4  5  6  7  8  9  10  11  12  23  26  30  31  33  0
 6-311+G(2d,p)
 ****
 35  36  37  38 0
 6-311+G(2d,p)
 ****
 1  2  13  14  15  16  17  18  19  20  21  22  24  25  27  28  29 0
 3-21G
 ****
 32  34  39  40  41  42  43  44  45  46  47  48  49 0
 3-21G
 ****


