%nproc=1
%NoSave
%Mem=1900MB
#P OB98/GEN NMR

erre ene a

0 1
  C      -23.523      46.409     127.759
  O      -22.141      46.165     128.036
  P      -21.385      47.209     128.992
  C      -20.403      45.193     130.321
  O      -20.163      46.454     129.704
  C      -19.139      44.334     130.275
  O      -18.976      43.711     128.986
  C      -17.866      45.130     130.495
  O      -17.691      45.417     131.871
  C      -16.801      44.202     129.920
  O      -16.286      43.303     130.918
  C      -17.574      43.425     128.829
  N      -17.117      43.742     127.483
  C      -15.866      43.227     127.128
  O      -15.208      42.570     127.936
  N      -15.383      43.496     125.870
  C      -16.075      44.231     125.055
  N      -15.541      44.468     123.823
  C      -17.387      44.816     125.405
  C      -17.844      44.538     126.625
  O      -22.431      47.430     130.186
  O      -21.030      48.496     128.322
  H      -15.869      43.870     131.598
  H      -22.362      48.342     130.527
  H      -17.924      45.429     124.695
  H      -18.798      44.922     126.967
  H      -17.459      42.343     128.979
  H      -15.950      44.765     129.529
  H      -17.898      46.062     129.913
  H      -19.224      43.544     131.038
  H      -14.642      44.054     123.621
  H      -21.222      44.675     129.816
  H      -15.990      45.031     123.119
  H      -20.729      45.363     131.354
  P      -18.104      46.877     132.390
  C      -18.858      45.529     134.445
  O      -18.264      46.724     133.980
  O      -19.636      46.976     131.914
  O      -17.295      48.031     131.908
  H      -19.981      47.870     132.086
  H      -18.719      45.462     135.525
  H      -18.396      44.657     133.971
  H      -19.932      45.543     134.230
  H      -23.898      45.642     127.114
  H      -23.628      47.360     127.280
  H      -24.076      46.407     128.675

 3  4  5  6  7  8  9  10  11  12  13  21  23  27  28  29  30  32 0
 6-311+G(2d,p)
 ****
 34  35 0
 6-311+G(2d,p)
 ****
 1  2  14  15  16  17  18  19  20  22  24  25  26 0
 3-21G
 ****
 31  33  36  37  38  39  40  41  42  43  44  45  46 0
 3-21G
 ****


