%nproc=1
%NoSave
%Mem=1900MB
#P OB98/GEN NMR

erre ene a

0 1
  C       72.261    -108.129      46.138
  O       71.452    -107.057      45.655
  P       72.163    -105.683      45.231
  C       72.887    -103.485      46.367
  O       72.387    -104.804      46.556
  C       72.515    -102.585      47.549
  O       71.087    -102.429      47.669
  C       72.976    -103.135      48.888
  O       74.374    -102.973      49.051
  C       72.112    -102.332      49.853
  O       72.683    -101.037      50.100
  C       70.790    -102.189      49.064
  N       69.734    -103.068      49.545
  C       68.940    -102.562      50.582
  O       69.176    -101.454      51.060
  N       67.909    -103.338      51.056
  C       67.698    -104.513      50.547
  N       66.662    -105.234      51.053
  C       68.519    -105.085      49.462
  C       69.515    -104.320      49.020
  O       71.540    -104.959      44.084
  O       73.657    -106.153      44.874
  H       72.068    -100.583      50.709
  H       74.021    -105.557      44.190
  H       68.300    -106.068      49.068
  H       70.171    -104.665      48.226
  H       70.421    -101.157      49.127
  H       72.015    -102.832      50.822
  H       72.715    -104.200      48.958
  H       72.961    -101.595      47.379
  H       66.118    -104.823      51.804
  H       72.479    -103.069      45.440
  H       66.386    -106.136      50.692
  H       73.975    -103.534      46.236
  P       75.326    -104.154      48.530
  C       75.911    -106.559      49.303
  O       75.056    -105.440      49.445
  O       76.784    -103.669      48.993
  O       75.281    -104.392      47.053
  H       77.448    -103.957      48.340
  H       75.799    -107.196      50.187
  H       76.959    -106.255      49.219
  H       75.624    -107.132      48.419
  H       71.639    -108.966      46.375
  H       72.784    -107.813      47.016
  H       72.966    -108.411      45.385

 3  4  5  6  7  8  9  10  11  12  13  23  27  28  29  30  32 0
 6-311+G(2d,p)
 ****
 34  35 0
 6-311+G(2d,p)
 ****
 1  2  14  15  16  17  18  19  20  21  22  24  25  26 0
 3-21G
 ****
 31  33  36  37  38  39  40  41  42  43  44  45  46 0
 3-21G
 ****


