%nproc=1
%NoSave
%Mem=1900MB
#P OB98/GEN NMR

erre ene a

0 1
  C      349.695     292.508     169.004
  O      349.048     291.365     168.492
  H      349.461     292.595     170.068
  H      349.326     293.400     168.490
  H      350.780     292.440     168.889
  P      349.564     290.741     167.115
  C      351.850     289.925     167.989
  O      351.170     290.805     167.105
  C      352.621     288.845     167.228
  O      351.693     287.975     166.545
  C      353.549     289.430     166.159
  O      354.836     289.790     166.632
  C      353.634     288.283     165.156
  O      354.696     287.374     165.490
  C      352.273     287.592     165.290
  N      351.448     287.621     160.244
  C      352.623     287.371     160.929
  N      353.713     287.138     160.166
  N      352.709     287.369     162.234
  C      351.559     287.717     162.854
  C      350.341     288.007     162.283
  C      350.235     287.932     160.841
  O      349.216     288.128     160.188
  N      349.409     288.358     163.230
  C      350.089     288.366     164.359
  N      351.375     287.906     164.193
  O      349.169     291.856     166.030
  O      348.973     289.414     166.745
  H      355.529     287.880     165.517
  H      348.973     291.427     165.177
  H      351.435     287.578     159.241
  H      349.691     288.647     165.327
  H      352.379     286.500     165.309
  H      353.847     288.659     164.153
  H      353.721     287.211     159.163
  H      353.077     290.283     165.663
  H      354.629     287.138     160.622
  H      353.175     288.224     167.943
  H      351.088     289.464     168.618
  H      352.523     290.486     168.642
  P      355.787     290.745     165.774
  C      356.361     292.428     167.708
  O      355.782     292.194     166.441
  O      354.961     290.959     164.422
  O      357.160     290.219     165.515
  H      355.287     290.365     163.721
  H      356.249     293.460     167.966
  H      357.401     292.179     167.676
  H      355.871     291.822     168.441

 6  7  8  9  10  11  12  13  14  15  26  29  33  34 0
 6-311+G(2d,p)
 ****
 36  38  39  40  41 0
 6-311+G(2d,p)
 ****
 1  2  3  4  5  16  17  18  19  20  21  22  23  24  25 0
 3-21G
 ****
 27  28  30  31  32  35  37  42  43  44  45  46  47 0
 3-21G
 ****
 48  49 0
 3-21G
 ****


