%nproc=1
%NoSave
%Mem=1900MB
#P OB98/GEN NMR

erre ene a

0 1
  C     -899.150    -291.521     459.081
  O     -898.290    -291.848     458.011
  H     -900.000    -292.201     459.075
  H     -899.520    -290.498     458.961
  H     -898.630    -291.617     460.043
  P     -896.860    -291.129     457.960
  C     -897.730    -289.953     455.808
  O     -896.650    -290.622     456.454
  C     -897.330    -289.543     454.391
  O     -896.260    -288.553     454.497
  C     -896.790    -290.701     453.530
  O     -897.220    -290.487     452.184
  C     -895.290    -290.530     453.617
  O     -894.580    -291.121     452.531
  C     -895.170    -288.999     453.654
  N     -893.880    -288.543     454.176
  C     -893.100    -287.760     453.340
  O     -893.450    -287.341     452.237
  N     -891.850    -287.440     453.831
  C     -891.330    -287.846     455.019
  O     -890.200    -287.552     455.389
  C     -892.200    -288.695     455.854
  C     -893.420    -288.997     455.396
  O     -895.830    -292.354     458.090
  O     -896.640    -290.079     459.007
  H     -895.630    -292.533     459.028
  H     -894.950    -290.764     451.702
  H     -891.270    -286.871     453.231
  H     -891.810    -289.036     456.801
  H     -894.070    -289.635     455.980
  H     -895.330    -288.586     452.654
  H     -894.910    -290.972     454.547
  H     -897.120    -291.694     453.873
  H     -898.180    -289.049     453.912
  H     -897.990    -289.056     456.385
  H     -898.600    -290.622     455.775
  P     -898.750    -290.820     451.827
  C     -898.460    -293.329     451.084
  O     -898.690    -291.963     450.706
  O     -899.170    -289.501     451.028
  O     -899.570    -291.134     453.030
  H     -898.460    -289.137     450.493
  H     -898.453    -293.945     450.209
  H     -899.239    -293.653     451.742
  H     -897.517    -293.407     451.583

 6  7  8  9  10  11  12  13  14  15  16  27  31  32  33  34  35 0
 6-311+G(2d,p)
 ****
 36  37 0
 6-311+G(2d,p)
 ****
 1  2  3  4  5  17  18  19  20  21  22  23  24  25 0
 3-21G
 ****
 26  28  29  30  38  39  40  41  42  43  44  45 0
 3-21G
 ****


