%nproc=1
%NoSave
%Mem=1900MB
#P OB98/GEN NMR

erre ene a

0 1
  C      692.638    -249.629     368.803
  O      692.074    -248.346     368.631
  H      693.638    -249.519     369.229
  H      692.725    -250.136     367.837
  H      692.031    -250.232     369.485
  P      690.543    -248.230     368.178
  C      689.772    -246.909     370.253
  O      689.664    -248.119     369.514
  C      688.576    -246.004     369.948
  O      687.346    -246.741     370.133
  C      688.470    -244.795     370.868
  O      689.413    -243.798     370.528
  C      687.018    -244.407     370.659
  O      686.861    -243.625     369.462
  C      686.331    -245.782     370.508
  N      685.643    -246.189     371.733
  C      684.257    -246.177     371.700
  O      683.608    -245.854     370.695
  N      683.626    -246.488     372.869
  C      684.239    -246.669     374.075
  O      683.627    -246.700     375.144
  C      685.705    -246.734     374.046
  C      686.336    -246.482     372.893
  O      690.081    -249.257     367.196
  O      690.443    -246.751     367.563
  H      690.456    -246.805     366.588
  H      687.286    -244.145     368.748
  H      682.610    -246.441     372.860
  H      686.228    -246.947     374.970
  H      687.412    -246.489     372.853
  H      685.599    -245.760     369.688
  H      686.635    -243.818     371.496
  H      688.607    -245.112     371.910
  H      688.639    -245.692     368.895
  H      690.698    -246.397     369.955
  H      689.822    -247.145     371.315
  P      689.951    -242.777     371.644
  C      692.224    -243.952     371.862
  O      691.048    -243.533     372.536
  O      688.886    -242.068     372.421
  O      690.842    -241.730     370.814
  H      690.555    -240.820     371.050
  H      692.877    -244.441     372.554
  H      692.719    -243.100     371.445
  H      691.963    -244.631     371.078

 6  7  8  9  10  11  12  13  14  15  16  27  31  32  33  34  35 0
 6-311+G(2d,p)
 ****
 36  37 0
 6-311+G(2d,p)
 ****
 1  2  3  4  5  17  18  19  20  21  22  23  24  25 0
 3-21G
 ****
 26  28  29  30  38  39  40  41  42  43  44  45 0
 3-21G
 ****


