%nproc=1
%NoSave
%Mem=1900MB
#P OB98/GEN NMR

erre ene a

0 1
  C      -62.515     137.260     128.240
  O      -62.420     136.322     127.190
  H      -63.428     137.845     128.104
  H      -61.656     137.936     128.209
  H      -62.557     136.764     129.212
  P      -61.385     135.111     127.330
  C      -59.671     135.761     125.513
  O      -59.942     135.669     126.902
  C      -58.246     135.294     125.195
  O      -57.295     136.112     125.919
  C      -58.039     133.852     125.664
  O      -57.069     133.164     124.879
  C      -57.502     134.030     127.075
  O      -56.782     132.894     127.546
  C      -56.650     135.286     126.906
  N      -53.355     137.327     130.213
  C      -53.110     136.511     129.127
  N      -51.819     136.177     128.906
  N      -54.047     136.051     128.340
  C      -55.297     136.406     128.725
  C      -55.667     137.187     129.796
  C      -54.617     137.724     130.635
  O      -54.777     138.437     131.622
  N      -57.032     137.312     129.878
  C      -57.486     136.602     128.866
  N      -56.472     136.043     128.128
  O      -61.760     134.147     126.106
  O      -61.417     134.376     128.635
  H      -56.425     133.118     128.426
  H      -61.487     133.232     126.298
  H      -52.595     137.666     130.777
  H      -58.533     136.465     128.621
  H      -55.651     135.029     126.529
  H      -58.351     134.178     127.749
  H      -51.092     136.359     129.580
  H      -58.969     133.281     125.658
  H      -51.654     135.360     128.311
  H      -58.033     135.426     124.128
  H      -59.792     136.812     125.228
  H      -60.402     135.180     124.945
  P      -57.525     132.629     123.439
  C      -56.679     130.148     123.536
  O      -57.771     131.049     123.560
  O      -56.200     132.755     122.554
  O      -58.669     133.385     122.852
  H      -56.274     133.513     121.944
  H      -57.042     129.146     123.628
  H      -56.019     130.365     124.350
  H      -56.151     130.252     122.611

 6  7  8  9  10  11  12  13  14  15  26  29  33  34 0
 6-311+G(2d,p)
 ****
 36  38  39  40  41 0
 6-311+G(2d,p)
 ****
 1  2  3  4  5  16  17  18  19  20  21  22  23  24  25 0
 3-21G
 ****
 27  28  30  31  32  35  37  42  43  44  45  46  47 0
 3-21G
 ****
 48  49 0
 3-21G
 ****


