%nproc=1
%NoSave
%Mem=1900MB
#P OB98/GEN NMR

erre ene a

0 1
  C      -12.832    -113.768     347.926
  O      -12.518    -114.446     346.721
  P      -10.971    -114.531     346.291
  C       -9.022    -112.807     346.226
  O      -10.427    -113.023     346.266
  C       -8.695    -111.380     346.652
  O       -8.901    -111.206     348.070
  C       -7.246    -110.971     346.406
  O       -7.015    -110.588     345.059
  C       -7.122    -109.771     347.328
  O       -7.697    -108.607     346.707
  C       -7.965    -110.205     348.532
  N       -4.589    -109.113     352.146
  C       -5.339    -108.268     351.352
  N       -5.115    -106.940     351.505
  N       -6.231    -108.677     350.490
  C       -6.344    -110.029     350.442
  C       -5.659    -110.968     351.179
  C       -4.661    -110.499     352.117
  O       -3.928    -111.202     352.807
  N       -6.053    -112.243     350.853
  C       -6.975    -112.076     349.929
  N       -7.158    -110.754     349.612
  O      -11.038    -114.925     344.742
  O      -10.159    -115.496     347.086
  H       -8.623    -108.834     346.492
  H      -10.172    -115.267     344.446
  H       -3.907    -108.746     352.789
  H       -7.520    -112.879     349.449
  H       -8.550    -109.373     348.944
  H       -6.082    -109.525     347.566
  H       -4.397    -106.563     352.106
  H       -6.552    -111.757     346.731
  H       -5.607    -106.302     350.890
  H       -9.381    -110.703     346.125
  H       -8.660    -112.983     345.210
  H       -8.533    -113.523     346.894
  P       -5.492    -110.618     344.552
  C       -3.464    -110.647     346.177
  O       -4.635    -109.976     345.739
  O       -5.469    -109.500     343.409
  O       -5.036    -111.950     344.049
  H       -4.768    -109.689     342.760
  H       -2.867    -109.959     346.783
  H       -2.855    -110.973     345.327
  H       -3.735    -111.509     346.787
  H      -13.890    -113.791     348.083
  H      -12.503    -112.752     347.860
  H      -12.339    -114.249     348.745

 3  4  5  6  7  8  9  10  11  12  23  26  30  31 0
 6-311+G(2d,p)
 ****
 33  35  36  37  38 0
 6-311+G(2d,p)
 ****
 1  2  13  14  15  16  17  18  19  20  21  22  24  25 0
 3-21G
 ****
 27  28  29  32  34  39  40  41  42  43  44  45  46  47  48  49 0
 3-21G
 ****


