%nproc=1
%NoSave
%Mem=1900MB
#P OB98/GEN NMR

erre ene a

0 1
  C      122.476     246.865    -132.587
  O      122.531     246.038    -133.750
  P      122.575     246.795    -135.168
  C      120.045     247.320    -135.315
  O      121.362     247.839    -135.232
  C      118.996     248.428    -135.463
  O      117.692     247.877    -135.785
  C      118.814     249.262    -134.187
  O      118.515     250.608    -134.604
  C      117.587     248.668    -133.548
  O      116.978     249.575    -132.627
  C      116.749     248.330    -134.791
  N      115.713     247.329    -134.535
  C      114.387     247.783    -134.502
  O      114.141     248.991    -134.611
  N      113.378     246.874    -134.303
  C      113.665     245.626    -134.106
  N      112.618     244.771    -133.910
  C      115.046     245.114    -134.072
  C      116.007     246.011    -134.301
  O      122.152     245.651    -136.211
  O      123.924     247.359    -135.500
  H      116.788     250.412    -133.109
  H      122.793     245.618    -136.947
  H      115.242     244.061    -133.880
  H      117.050     245.729    -134.298
  H      116.259     249.229    -135.185
  H      117.853     247.745    -133.001
  H      119.703     249.272    -133.542
  H      119.298     249.075    -136.291
  H      111.682     245.162    -133.949
  H      119.823     246.733    -134.415
  H      112.726     243.784    -133.745
  H      119.990     246.618    -136.158
  P      119.632     251.739    -134.396
  C      118.254     253.128    -132.722
  O      119.386     252.294    -132.909
  O      119.042     252.943    -135.282
  O      121.040     251.423    -134.777
  H      119.670     253.680    -135.307
  H      118.137     253.326    -131.660
  H      117.352     252.629    -133.089
  H      118.398     254.072    -133.253
  H      122.451     246.249    -131.712
  H      121.595     247.471    -132.622
  H      123.341     247.494    -132.555

 3  4  5  6  7  8  9  10  11  12  13  21  23  27  28  29  30  32 0
 6-311+G(2d,p)
 ****
 34  35 0
 6-311+G(2d,p)
 ****
 1  2  14  15  16  17  18  19  20  22  24  25  26 0
 3-21G
 ****
 31  33  36  37  38  39  40  41  42  43  44  45  46 0
 3-21G
 ****


