%nproc=1
%NoSave
%Mem=1900MB
#P OB98/GEN NMR

erre ene a

0 1
  C     -293.520     138.018     -62.325
  O     -293.133     137.995     -63.708
  P     -291.701     138.597     -64.126
  C     -291.617     137.370     -66.436
  O     -291.595     138.601     -65.729
  C     -291.933     137.618     -67.915
  O     -293.280     138.120     -68.072
  C     -291.039     138.661     -68.577
  O     -289.753     138.139     -68.880
  C     -291.858     139.011     -69.820
  O     -291.644     138.052     -70.867
  C     -293.303     138.920     -69.281
  N     -293.900     140.228     -69.048
  C     -294.013     141.059     -70.149
  O     -293.587     140.775     -71.265
  N     -294.608     142.276     -69.918
  C     -295.024     142.749     -68.704
  O     -295.533     143.855     -68.559
  C     -294.806     141.856     -67.564
  C     -294.254     140.658     -67.779
  O     -290.702     137.406     -63.732
  O     -291.308     139.867     -63.441
  H     -290.756     138.223     -71.231
  H     -289.827     137.770     -63.518
  H     -294.719     142.888     -70.713
  H     -295.097     142.202     -66.580
  H     -294.084     139.979     -66.946
  H     -293.930     138.365     -69.995
  H     -291.600     139.998     -70.223
  H     -290.955     139.544     -67.938
  H     -291.865     136.653     -68.445
  H     -292.389     136.722     -66.012
  H     -290.649     136.873     -66.322
  P     -288.522     139.170     -68.829
  C     -287.432     138.334     -66.600
  O     -287.373     138.411     -68.011
  O     -289.099     140.271     -67.811
  O     -288.149     139.701     -70.169
  H     -289.673     139.876     -67.131
  H     -288.463     138.271     -66.244
  H     -286.948     139.214     -66.163
  H     -286.893     137.438     -66.278
  H     -294.492     137.583     -62.219
  H     -293.542     139.030     -61.978
  H     -292.814     137.458     -61.748

 3  4  5  6  7  8  9  10  11  12  13  23  28  29  30  31  32 0
 6-311+G(2d,p)
 ****
 33  34 0
 6-311+G(2d,p)
 ****
 1  2  14  15  16  17  18  19  20  21  22  24  25  26 0
 3-21G
 ****
 27  35  36  37  38  39  40  41  42  43  44  45 0
 3-21G
 ****


