%nproc=1
%NoSave
%Mem=1900MB
#P OB98/GEN NMR

erre ene a

0 1
  C     -158.422     268.675     123.396
  O     -158.034     269.184     122.132
  P     -156.464     269.440     121.893
  C     -154.650     270.929     123.014
  O     -156.029     270.622     122.884
  C     -154.415     271.796     124.251
  O     -155.101     271.233     125.387
  C     -152.958     271.919     124.673
  O     -152.250     272.807     123.827
  C     -153.125     272.408     126.109
  O     -153.417     273.812     126.121
  C     -154.357     271.606     126.574
  N     -152.104     269.805     130.806
  C     -152.269     271.058     130.335
  N     -152.855     271.459     129.190
  C     -153.318     270.403     128.501
  C     -153.211     269.065     128.843
  C     -152.571     268.773     130.057
  N     -152.407     267.488     130.533
  N     -153.780     268.263     127.877
  C     -154.236     269.103     126.972
  N     -153.993     270.410     127.307
  O     -156.427     270.134     120.454
  O     -155.613     268.210     121.951
  H     -153.482     274.089     127.054
  H     -155.622     269.873     119.963
  H     -151.870     271.854     130.968
  H     -154.753     268.817     126.066
  H     -155.023     272.197     127.214
  H     -152.233     272.247     126.721
  H     -152.472     270.937     124.665
  H     -154.838     272.792     124.051
  H     -154.310     271.482     122.127
  H     -151.810     267.359     131.337
  H     -152.626     266.722     129.908
  H     -154.081     269.996     123.076
  P     -150.652     272.692     123.810
  C     -149.117     272.720     125.874
  O     -150.208     273.340     125.212
  O     -150.251     273.828     122.760
  O     -150.122     271.329     123.527
  H     -150.706     274.673     122.943
  H     -148.890     273.288     126.780
  H     -148.239     272.711     125.224
  H     -149.385     271.696     126.152
  H     -159.485     268.553     123.420
  H     -158.124     269.359     124.163
  H     -157.950     267.729     123.560

 3  4  5  6  7  8  9  10  11  12  22  25  29  30  31  32 0
 6-311+G(2d,p)
 ****
 33  36  37 0
 6-311+G(2d,p)
 ****
 1  2  13  14  15  16  17  18  19  20  21  23  24  26 0
 3-21G
 ****
 27  28  34  35  38  39  40  41  42  43  44  45  46  47  48 0
 3-21G
 ****


