%nproc=1
%NoSave
%Mem=1900MB
#P OB98/GEN NMR

erre ene a

0 1
  C     -231.351    -919.317    -168.075
  O     -231.058    -920.697    -168.237
  H     -232.346    -919.125    -168.471
  H     -230.627    -918.717    -168.636
  H     -231.319    -919.050    -167.016
  P     -229.611    -921.182    -167.752
  C     -230.762    -922.979    -166.269
  O     -229.791    -922.707    -167.274
  C     -230.570    -924.397    -165.727
  O     -229.211    -924.576    -165.250
  C     -231.486    -924.755    -164.576
  O     -232.769    -925.160    -165.026
  C     -230.718    -925.889    -163.903
  O     -230.921    -927.130    -164.599
  C     -229.266    -925.408    -164.057
  N     -228.647    -925.487    -159.040
  C     -229.143    -926.443    -159.886
  N     -229.603    -927.571    -159.313
  N     -229.217    -926.307    -161.191
  C     -228.757    -925.099    -161.621
  C     -228.224    -924.080    -160.887
  C     -228.134    -924.256    -159.446
  O     -227.640    -923.462    -158.641
  N     -227.848    -923.021    -161.681
  C     -228.200    -923.412    -162.893
  N     -228.765    -924.664    -162.908
  O     -229.402    -920.390    -166.375
  O     -228.487    -920.930    -168.706
  H     -230.214    -927.757    -164.351
  H     -228.444    -920.225    -166.245
  H     -228.611    -925.646    -158.053
  H     -228.046    -922.815    -163.797
  H     -228.567    -926.234    -164.207
  H     -231.039    -926.031    -162.874
  H     -229.888    -927.603    -158.341
  H     -231.587    -923.902    -163.861
  H     -229.992    -928.279    -159.934
  H     -230.715    -925.092    -166.568
  H     -231.769    -922.893    -166.708
  H     -230.659    -922.250    -165.473
  P     -233.996    -925.084    -164.006
  C     -235.703    -925.322    -165.952
  O     -235.234    -925.839    -164.718
  O     -234.429    -923.548    -164.044
  O     -233.689    -925.557    -162.618
  H     -234.987    -923.326    -163.274
  H     -236.519    -925.919    -166.302
  H     -234.911    -925.343    -166.672
  H     -236.033    -924.313    -165.814

 6  7  8  9  10  11  12  13  14  15  26  29  33  34 0
 6-311+G(2d,p)
 ****
 36  38  39  40  41 0
 6-311+G(2d,p)
 ****
 1  2  3  4  5  16  17  18  19  20  21  22  23  24  25 0
 3-21G
 ****
 27  28  30  31  32  35  37  42  43  44  45  46  47 0
 3-21G
 ****
 48  49 0
 3-21G
 ****


