%nproc=1
%NoSave
%Mem=1900MB
#P OB98/GEN NMR

erre ene a

0 1
  C      -89.856       4.681      92.038
  O      -90.096       5.952      92.654
  P      -91.570       6.424      93.080
  C      -92.125       5.372      95.356
  O      -91.685       6.546      94.681
  C      -92.114       5.514      96.885
  O      -90.805       5.186      97.429
  C      -92.472       6.913      97.408
  O      -93.114       6.709      98.668
  C      -91.098       7.538      97.604
  O      -91.105       8.664      98.470
  C      -90.321       6.339      98.143
  N      -86.148       8.914      99.636
  C      -87.404       8.872     100.133
  N      -88.449       8.133      99.706
  C      -88.093       7.347      98.676
  C      -86.847       7.270      98.067
  C      -85.846       8.116      98.582
  N      -84.577       8.196      98.051
  N      -86.868       6.372      97.017
  C      -88.106       5.918      96.988
  N      -88.887       6.476      97.975
  O      -92.672       5.632      92.450
  O      -91.653       7.949      92.588
  H      -90.198       9.024      98.514
  H      -92.503       8.095      92.133
  H      -87.596       9.521     100.984
  H      -88.499       5.213      96.271
  H      -90.521       6.181      99.212
  H      -90.712       7.870      96.630
  H      -93.108       7.483      96.732
  H      -92.814       4.768      97.289
  H      -91.473       4.535      95.062
  H      -83.958       8.893      98.428
  H      -84.370       7.703      97.191
  H      -93.141       5.133      95.020
  P      -94.376       7.590      99.123
  C      -96.325       6.796      97.663
  O      -95.675       6.670      98.915
  O      -94.458       8.943      98.494
  O      -94.245       7.688     100.717
  H      -94.781       8.442     101.041
  H      -96.905       7.726      97.637
  H      -96.998       5.948      97.523
  H      -95.596       6.802      96.842
  H      -88.810       4.573      91.839
  H      -90.401       4.621      91.119
  H      -90.177       3.900      92.695

 3  4  5  6  7  8  9  10  11  12  22  25  29  30  31  32 0
 6-311+G(2d,p)
 ****
 33  36  37 0
 6-311+G(2d,p)
 ****
 1  2  13  14  15  16  17  18  19  20  21  23  24  26 0
 3-21G
 ****
 27  28  34  35  38  39  40  41  42  43  44  45  46  47  48 0
 3-21G
 ****


