%nproc=1
%NoSave
%Mem=1900MB
#P OB98/GEN NMR

erre ene a

0 1
  C       84.951     109.683      -1.114
  O       86.194     109.401      -0.512
  H       84.777     108.958      -1.913
  H       84.974     110.686      -1.549
  H       84.132     109.615      -0.394
  P       86.496     109.989       0.943
  C       88.910     110.729       0.411
  O       87.605     111.141       0.798
  C       89.543     111.709      -0.576
  O       88.718     111.811      -1.756
  C       89.669     113.123      -0.001
  O       90.856     113.352       0.740
  C       89.637     113.980      -1.263
  O       90.954     114.153      -1.811
  C       88.759     113.168      -2.221
  N       85.645     116.543      -4.467
  C       87.025     116.470      -4.516
  N       87.642     117.440      -5.224
  N       87.718     115.541      -3.914
  C       86.968     114.701      -3.166
  C       85.598     114.688      -3.023
  C       84.832     115.674      -3.753
  O       83.610     115.771      -3.755
  N       85.192     113.710      -2.147
  C       86.319     113.195      -1.698
  N       87.418     113.709      -2.346
  O       87.315     108.810       1.660
  O       85.290     110.359       1.752
  H       91.323     113.267      -1.996
  H       87.131     108.819       2.616
  H       85.165     117.263      -4.974
  H       86.396     112.422      -0.943
  H       89.187     113.144      -3.232
  H       89.254     114.980      -1.045
  H       87.166     118.226      -5.634
  H       88.794     113.374       0.604
  H       88.656     117.533      -5.129
  H       90.517     111.319      -0.899
  H       88.801     109.748      -0.054
  H       89.547     110.607       1.292
  P       90.803     113.595       2.318
  C       91.259     116.153       1.943
  O       90.512     115.140       2.581
  O       92.331     113.425       2.761
  O       89.896     112.684       3.079
  H       92.488     112.533       3.121
  H       90.902     117.111       2.258
  H       91.149     116.063       0.882
  H       92.292     116.053       2.204

 6  7  8  9  10  11  12  13  14  15  26  29  33  34 0
 6-311+G(2d,p)
 ****
 36  38  39  40  41 0
 6-311+G(2d,p)
 ****
 1  2  3  4  5  16  17  18  19  20  21  22  23  24  25 0
 3-21G
 ****
 27  28  30  31  32  35  37  42  43  44  45  46  47 0
 3-21G
 ****
 48  49 0
 3-21G
 ****


