%nproc=1
%NoSave
%Mem=1900MB
#P OB98/GEN NMR

erre ene a

0 1
  C       64.748     418.599      25.249
  O       63.980     417.391      25.207
  P       62.490     417.481      24.622
  C       62.226     415.108      23.603
  O       61.844     416.012      24.630
  C       63.529     414.377      23.957
  O       63.390     413.647      25.208
  C       63.965     413.357      22.898
  O       65.393     413.274      22.914
  C       63.396     412.058      23.436
  O       64.031     410.921      22.853
  C       63.637     412.253      24.932
  N       63.595     408.701      28.513
  C       64.658     409.317      27.881
  N       65.894     408.955      28.289
  N       64.522     410.209      26.933
  C       63.227     410.496      26.656
  C       62.089     409.951      27.206
  C       62.255     408.948      28.234
  O       61.350     408.361      28.818
  N       60.957     410.484      26.643
  C       61.412     411.343      25.750
  N       62.779     411.411      25.746
  O       62.734     417.770      23.064
  O       61.658     418.551      25.246
  H       63.999     411.036      21.878
  H       62.492     418.691      22.859
  H       63.757     408.014      29.230
  H       60.801     411.935      25.085
  H       64.672     412.025      25.220
  H       62.322     412.002      23.216
  H       66.066     408.313      29.048
  H       63.627     413.578      21.880
  H       66.689     409.421      27.872
  H       64.320     415.121      24.100
  H       62.356     415.645      22.658
  H       61.406     414.401      23.430
  P       66.188     414.204      21.881
  C       68.310     415.158      23.033
  O       67.733     414.104      22.284
  O       65.781     415.689      22.319
  O       65.881     413.941      20.442
  H       65.867     416.302      21.566
  H       68.414     414.839      24.075
  H       67.706     416.069      22.992
  H       69.300     415.375      22.628
  H       65.715     418.393      25.659
  H       64.247     419.319      25.861
  H       64.856     418.987      24.258

 3  4  5  6  7  8  9  10  11  12  23  26  30  31 0
 6-311+G(2d,p)
 ****
 33  35  36  37  38 0
 6-311+G(2d,p)
 ****
 1  2  13  14  15  16  17  18  19  20  21  22  24  25 0
 3-21G
 ****
 27  28  29  32  34  39  40  41  42  43  44  45  46  47  48  49 0
 3-21G
 ****


