%nproc=1
%NoSave
%Mem=1900MB
#P OB98/GEN NMR

erre ene a

0 1
  C     -453.777     231.705    -386.107
  O     -454.246     231.283    -387.373
  H     -453.186     230.897    -385.665
  H     -454.624     231.921    -385.451
  H     -453.148     232.591    -386.210
  P     -454.991     232.377    -388.273
  C     -457.046     233.970    -387.914
  O     -456.100     233.076    -387.342
  C     -458.464     233.447    -387.687
  O     -458.819     233.502    -386.290
  C     -459.543     234.275    -388.367
  O     -459.547     234.118    -389.768
  C     -460.781     233.725    -387.678
  O     -461.173     232.466    -388.242
  C     -460.269     233.539    -386.227
  N     -460.744     234.584    -385.333
  C     -461.974     234.338    -384.706
  O     -462.578     233.290    -384.919
  N     -462.495     235.305    -383.883
  C     -461.842     236.406    -383.677
  N     -462.417     237.323    -382.860
  C     -460.532     236.690    -384.298
  C     -460.051     235.753    -385.107
  O     -455.873     231.478    -389.258
  O     -454.099     233.354    -388.961
  H     -461.603     232.666    -389.097
  H     -456.439     230.834    -388.798
  H     -460.017     237.620    -384.091
  H     -459.098     235.883    -385.604
  H     -460.599     232.572    -385.825
  H     -461.636     234.394    -387.777
  H     -459.444     235.331    -388.087
  H     -458.496     232.398    -388.011
  H     -463.324     237.102    -382.469
  H     -456.855     234.114    -388.983
  H     -462.015     238.229    -382.654
  H     -456.921     234.942    -387.427
  P     -459.989     235.330    -390.721
  C     -462.195     236.574    -391.187
  O     -461.591     235.408    -390.630
  O     -459.451     235.276    -392.110
  O     -459.540     236.628    -389.897
  H     -459.953     236.719    -389.020
  H     -463.257     236.516    -391.070
  H     -461.954     236.638    -392.228
  H     -461.827     237.442    -390.682

 6  7  8  9  10  11  12  13  14  15  16  26  30  31  32  33  35 0
 6-311+G(2d,p)
 ****
 37  38 0
 6-311+G(2d,p)
 ****
 1  2  3  4  5  17  18  19  20  21  22  23  24  25 0
 3-21G
 ****
 27  28  29  34  36  39  40  41  42  43  44  45  46 0
 3-21G
 ****


