%nproc=1
%NoSave
%Mem=1900MB
#P OB98/GEN NMR

erre ene a

0 1
  C     -410.784    -168.118     256.075
  O     -412.099    -168.113     255.539
  P     -412.556    -169.219     254.470
  C     -414.086    -170.423     256.154
  O     -412.946    -170.535     255.310
  C     -414.726    -171.794     256.370
  O     -413.706    -172.720     256.812
  C     -415.826    -171.785     257.435
  O     -416.851    -172.707     257.044
  C     -415.146    -172.336     258.689
  O     -416.103    -172.947     259.569
  C     -414.118    -173.296     258.071
  N     -412.351    -175.111     262.540
  C     -413.589    -175.118     261.998
  N     -413.987    -174.598     260.816
  C     -412.949    -174.060     260.151
  C     -411.632    -173.983     260.583
  C     -411.345    -174.532     261.844
  N     -410.081    -174.537     262.394
  N     -410.849    -173.336     259.647
  C     -411.674    -173.048     258.660
  N     -412.952    -173.476     258.916
  O     -411.593    -169.453     253.356
  O     -413.970    -168.698     253.936
  H     -415.658    -173.063     260.434
  H     -414.054    -168.877     252.982
  H     -414.360    -175.607     262.581
  H     -411.403    -172.531     257.747
  H     -414.561    -174.278     257.867
  H     -414.658    -171.514     259.223
  H     -416.253    -170.791     257.601
  H     -415.119    -172.157     255.416
  H     -414.813    -169.756     255.669
  H     -409.939    -175.063     263.250
  H     -409.297    -174.267     261.801
  H     -413.789    -169.975     257.110
  P     -418.351    -172.329     257.519
  C     -418.824    -171.224     255.207
  O     -418.762    -171.076     256.609
  O     -418.439    -172.155     259.006
  O     -419.182    -173.568     256.933
  H     -418.720    -173.975     256.167
  H     -419.085    -170.250     254.763
  H     -419.599    -171.943     254.935
  H     -417.855    -171.542     254.813
  H     -410.677    -167.307     256.765
  H     -410.075    -168.007     255.281
  H     -410.609    -169.044     256.582

 3  4  5  6  7  8  9  10  11  12  22  25  29  30  31  32 0
 6-311+G(2d,p)
 ****
 33  36  37 0
 6-311+G(2d,p)
 ****
 1  2  13  14  15  16  17  18  19  20  21  23  24  26 0
 3-21G
 ****
 27  28  34  35  38  39  40  41  42  43  44  45  46  47  48 0
 3-21G
 ****


