%nproc=1
%NoSave
%Mem=1900MB
#P OB98/GEN NMR

erre ene a

0 1
  C      -88.731     146.163     121.194
  O      -88.864     144.861     121.731
  H      -88.149     146.102     120.271
  H      -88.205     146.809     121.901
  H      -89.715     146.577     120.965
  P      -89.714     144.731     123.086
  C      -91.988     144.123     122.006
  O      -91.209     145.121     122.653
  C      -93.368     144.023     122.648
  O      -93.254     143.870     124.074
  C      -94.251     145.245     122.433
  O      -94.860     145.210     121.153
  C      -95.269     145.061     123.547
  O      -96.258     144.092     123.148
  C      -94.412     144.491     124.693
  N      -95.374     146.701     129.224
  C      -96.116     145.880     128.451
  N      -95.814     145.367     127.240
  C      -94.603     145.780     126.834
  C      -93.732     146.617     127.516
  C      -94.156     147.079     128.773
  N      -93.391     147.909     129.564
  N      -92.580     146.822     126.788
  C      -92.729     146.079     125.710
  N      -93.952     145.457     125.673
  O      -89.159     145.445     124.269
  O      -89.808     143.138     123.235
  H      -95.803     143.237     123.038
  H      -89.931     142.720     122.365
  H      -97.081     145.596     128.859
  H      -91.981     145.944     124.938
  H      -94.945     143.713     125.249
  H      -95.803     145.984     123.779
  H      -93.698     146.174     122.604
  H      -93.853     143.117     122.262
  H      -91.482     143.153     122.056
  H      -93.836     148.328     130.365
  H      -92.541     148.287     129.172
  H      -92.080     144.410     120.954
  P      -95.008     146.547     120.280
  C      -93.496     145.822     118.332
  O      -93.646     146.697     119.443
  O      -95.400     147.761     121.048
  O      -96.083     146.178     119.159
  H      -96.667     146.941     118.984
  H      -92.558     146.011     117.853
  H      -94.292     145.989     117.636
  H      -93.526     144.807     118.671

 6  7  8  9  10  11  12  13  14  15  25  28  32  33  34  35 0
 6-311+G(2d,p)
 ****
 36  39  40 0
 6-311+G(2d,p)
 ****
 1  2  3  4  5  16  17  18  19  20  21  22  23  24 0
 3-21G
 ****
 26  27  29  30  31  37  38  41  42  43  44  45  46  47 0
 3-21G
 ****
 48 0
 3-21G
 ****


