%nproc=1
%NoSave
%Mem=1900MB
#P OB98/GEN NMR

erre ene a

0 1
  C      367.989     -66.159     117.697
  O      366.603     -65.956     117.893
  H      368.174     -66.560     116.698
  H      368.502     -65.196     117.792
  H      368.382     -66.844     118.454
  P      365.659     -67.245     117.758
  C      364.589     -66.729     115.454
  O      365.493     -67.547     116.188
  C      364.406     -67.295     114.046
  O      365.698     -67.309     113.385
  C      363.830     -68.719     113.995
  O      362.621     -68.737     113.229
  C      364.882     -69.528     113.250
  O      364.326     -70.468     112.330
  C      365.709     -68.464     112.539
  N      369.177     -69.397     108.925
  C      368.080     -68.611     108.926
  N      367.258     -68.320     109.954
  C      367.680     -68.916     111.081
  C      368.790     -69.730     111.239
  C      369.548     -69.981     110.085
  N      370.641     -70.827     110.072
  N      368.893     -70.167     112.550
  C      367.837     -69.664     113.160
  N      367.063     -68.919     112.308
  O      364.217     -66.693     118.188
  O      366.067     -68.419     118.584
  H      363.841     -69.955     111.661
  H      363.809     -67.303     118.831
  H      367.823     -68.157     107.969
  H      367.565     -69.845     114.190
  H      365.274     -68.180     111.572
  H      365.487     -70.077     113.981
  H      363.645     -69.137     114.992
  H      363.767     -66.605     113.478
  H      364.990     -65.715     115.380
  H      371.056     -71.038     109.180
  H      370.858     -71.347     110.910
  H      363.637     -66.687     115.985
  P      361.241     -68.732     114.056
  C      359.938     -70.762     113.070
  O      360.726     -70.249     114.138
  O      360.212     -68.049     113.037
  O      361.315     -67.997     115.352
  H      359.492     -67.614     113.530
  H      359.677     -71.779     113.276
  H      360.498     -70.715     112.159
  H      359.047     -70.178     112.972

 6  7  8  9  10  11  12  13  14  15  25  28  32  33  34  35 0
 6-311+G(2d,p)
 ****
 36  39  40 0
 6-311+G(2d,p)
 ****
 1  2  3  4  5  16  17  18  19  20  21  22  23  24 0
 3-21G
 ****
 26  27  29  30  31  37  38  41  42  43  44  45  46  47  48 0
 3-21G
 ****


