%nproc=1
%NoSave
%Mem=1900MB
#P OB98/GEN NMR

erre ene a

0 1
  C      135.441     202.699     -63.437
  O      136.395     202.223     -64.387
  P      135.804     201.475     -65.683
  C      136.407     199.045     -65.026
  O      135.375     199.989     -65.268
  C      136.122     197.695     -65.696
  O      137.287     196.831     -65.651
  C      134.977     196.919     -65.028
  O      134.296     196.197     -66.071
  C      135.688     195.933     -64.140
  O      134.852     194.826     -63.803
  C      136.911     195.595     -65.007
  N      138.021     195.027     -64.241
  C      138.405     193.717     -64.559
  O      137.768     193.069     -65.397
  N      139.467     193.155     -63.894
  C      140.066     193.822     -62.959
  N      141.113     193.209     -62.331
  C      139.660     195.179     -62.551
  C      138.647     195.714     -63.235
  O      137.100     201.257     -66.606
  O      134.754     202.268     -66.401
  H      135.371     194.222     -63.221
  H      136.918     201.572     -67.512
  H      140.179     195.693     -61.744
  H      138.281     196.705     -63.009
  H      136.644     194.880     -65.794
  H      136.005     196.426     -63.204
  H      134.258     197.565     -64.508
  H      135.885     197.879     -66.747
  H      141.368     192.278     -62.648
  H      136.521     198.893     -63.946
  H      141.646     193.634     -61.591
  H      137.360     199.459     -65.379
  P      132.901     196.772     -66.616
  C      131.484     194.665     -66.195
  O      131.777     195.988     -65.778
  O      132.789     196.049     -68.046
  O      132.744     198.251     -66.740
  H      132.012     196.374     -68.525
  H      130.806     194.214     -65.475
  H      132.400     194.069     -66.238
  H      131.006     194.683     -67.178
  H      135.952     203.174     -62.626
  H      134.868     201.876     -63.064
  H      134.788     203.403     -63.909

 3  4  5  6  7  8  9  10  11  12  13  21  23  27  28  29  30  32 0
 6-311+G(2d,p)
 ****
 34  35 0
 6-311+G(2d,p)
 ****
 1  2  14  15  16  17  18  19  20  22  24  25  26 0
 3-21G
 ****
 31  33  36  37  38  39  40  41  42  43  44  45  46 0
 3-21G
 ****


