%nproc=1
%NoSave
%Mem=1900MB
#P OB98/GEN NMR

erre ene a

0 1
  C     -434.609     280.770     240.850
  O     -435.780     280.080     241.263
  P     -437.163     280.893     241.225
  C     -437.843     280.215     238.805
  O     -437.432     281.266     239.680
  C     -439.280     280.437     238.317
  O     -439.368     281.727     237.671
  C     -439.772     279.372     237.325
  O     -441.151     279.125     237.594
  C     -439.644     280.060     235.980
  O     -440.532     279.500     235.012
  C     -439.940     281.522     236.360
  N     -439.408     282.471     235.385
  C     -440.225     282.787     234.293
  O     -441.304     282.209     234.143
  N     -439.775     283.701     233.363
  C     -438.575     284.176     233.475
  N     -438.179     285.087     232.539
  C     -437.637     283.777     234.541
  C     -438.119     282.951     235.463
  O     -436.775     282.300     241.878
  O     -438.297     280.232     241.940
  H     -440.322     278.544     234.920
  H     -437.528     282.680     242.364
  H     -436.629     284.181     234.561
  H     -437.511     282.621     236.303
  H     -441.027     281.687     236.446
  H     -438.619     279.967     235.604
  H     -439.209     278.442     237.391
  H     -439.942     280.463     239.196
  H     -438.835     285.330     231.804
  H     -437.808     279.264     239.348
  H     -437.259     285.510     232.537
  H     -437.154     280.156     237.961
  P     -441.740     277.679     237.233
  C     -441.251     277.223     239.711
  O     -441.197     276.708     238.399
  O     -440.797     277.252     235.996
  O     -443.178     277.560     236.878
  H     -441.094     276.395     235.638
  H     -440.978     276.419     240.409
  H     -442.254     277.565     239.954
  H     -440.528     278.037     239.836
  H     -433.765     280.116     240.924
  H     -434.457     281.622     241.479
  H     -434.723     281.091     239.836

 3  4  5  6  7  8  9  10  11  12  13  21  23  27  28  29  30  32 0
 6-311+G(2d,p)
 ****
 34  35 0
 6-311+G(2d,p)
 ****
 1  2  14  15  16  17  18  19  20  22  24  25  26 0
 3-21G
 ****
 31  33  36  37  38  39  40  41  42  43  44  45  46 0
 3-21G
 ****


