%nproc=1
%NoSave
%Mem=1900MB
#P OB98/GEN NMR

erre ene a

0 1
  C     1020.001    -462.283     426.460
  O     1019.190    -461.249     425.921
  H     1019.734    -463.233     425.955
  H     1019.799    -462.401     427.525
  H     1021.045    -462.069     426.275
  P     1019.398    -459.782     426.553
  C     1021.600    -459.382     425.225
  O     1020.259    -458.947     425.477
  C     1021.940    -459.219     423.743
  O     1021.074    -460.082     422.930
  C     1021.779    -457.808     423.193
  O     1022.919    -457.020     423.486
  C     1021.605    -458.073     421.695
  O     1022.868    -458.296     421.066
  C     1020.748    -459.352     421.700
  N     1016.968    -457.810     418.709
  C     1018.308    -457.971     418.456
  N     1018.719    -457.645     417.202
  N     1019.185    -458.417     419.314
  C     1018.635    -458.723     420.503
  C     1017.307    -458.581     420.911
  C     1016.356    -458.105     419.937
  O     1015.154    -458.021     420.094
  N     1017.141    -458.975     422.223
  C     1018.377    -459.290     422.643
  N     1019.317    -459.096     421.642
  O     1020.455    -460.043     427.744
  O     1018.164    -459.118     427.045
  H     1023.391    -457.501     421.153
  H     1020.285    -459.396     428.456
  H     1016.364    -457.471     418.009
  H     1018.625    -459.629     423.634
  H     1021.004    -460.006     420.852
  H     1021.103    -457.232     421.214
  H     1018.191    -456.981     416.642
  H     1020.871    -457.331     423.604
  H     1019.725    -457.732     417.001
  H     1022.971    -459.572     423.581
  H     1021.694    -460.444     425.504
  H     1022.292    -458.798     425.833
  P     1022.710    -455.432     423.621
  C     1021.506    -455.402     425.931
  O     1022.698    -455.093     425.176
  O     1021.190    -455.213     423.172
  O     1023.655    -454.611     422.801
  H     1021.025    -454.264     422.960
  H     1021.648    -455.119     426.953
  H     1021.311    -456.453     425.875
  H     1020.676    -454.863     425.524

 6  7  8  9  10  11  12  13  14  15  26  29  33  34 0
 6-311+G(2d,p)
 ****
 36  38  39  40  41 0
 6-311+G(2d,p)
 ****
 1  2  3  4  5  16  17  18  19  20  21  22  23  24  25 0
 3-21G
 ****
 27  28  30  31  32  35  37  42  43  44  45  46  47 0
 3-21G
 ****
 48  49 0
 3-21G
 ****


