%nproc=1
%NoSave
%Mem=1900MB
#P OB98/GEN NMR

erre ene a

0 1
  C       31.219     -20.470     255.104
  O       32.406     -19.746     255.359
  H       30.909     -20.280     254.073
  H       30.423     -20.141     255.776
  H       31.398     -21.540     255.229
  P       33.005     -19.837     256.845
  C       32.497     -17.332     257.315
  O       32.288     -18.684     257.700
  C       32.399     -16.428     258.539
  O       31.049     -16.450     259.059
  C       33.287     -16.856     259.700
  O       34.640     -16.479     259.508
  C       32.627     -16.120     260.854
  O       33.084     -14.762     260.943
  C       31.131     -16.177     260.473
  N       30.400     -17.163     261.263
  C       29.627     -16.649     262.302
  O       29.552     -15.446     262.557
  N       28.968     -17.573     263.070
  C       29.037     -18.928     262.927
  O       28.480     -19.701     263.695
  C       29.857     -19.411     261.803
  C       30.498     -18.523     261.040
  O       34.504     -19.304     256.664
  O       32.960     -21.196     257.462
  H       35.126     -20.055     256.661
  H       32.835     -14.335     260.100
  H       28.414     -17.221     263.833
  H       29.928     -20.483     261.657
  H       31.126     -18.856     260.219
  H       30.660     -15.199     260.633
  H       32.851     -16.593     261.811
  H       33.197     -17.936     259.869
  H       32.632     -15.399     258.233
  H       31.731     -17.036     256.590
  H       33.482     -17.243     256.842
  P       35.792     -17.432     260.093
  C       36.313     -15.935     262.189
  O       35.843     -17.166     261.673
  O       37.103     -16.710     259.532
  O       35.643     -18.862     259.700
  H       37.025     -15.741     259.508
  H       36.268     -15.956     263.258
  H       35.701     -15.138     261.822
  H       37.325     -15.781     261.878

 6  7  8  9  10  11  12  13  14  15  16  27  31  32  33  34  35 0
 6-311+G(2d,p)
 ****
 36  37 0
 6-311+G(2d,p)
 ****
 1  2  3  4  5  17  18  19  20  21  22  23  24  25 0
 3-21G
 ****
 26  28  29  30  38  39  40  41  42  43  44  45 0
 3-21G
 ****


