%nproc=1
%NoSave
%Mem=1900MB
#P OB98/GEN NMR

erre ene a

0 1
  C      481.722     559.941      63.915
  O      480.913     560.816      64.685
  P      479.430     561.216      64.200
  C      478.500     562.308      62.052
  O      479.646     562.046      62.845
  C      478.912     562.931      60.717
  O      479.847     562.047      60.045
  C      477.774     563.150      59.740
  O      477.007     564.290      60.104
  C      478.536     563.265      58.424
  O      479.105     564.581      58.285
  C      479.662     562.227      58.623
  N      479.388     560.954      57.956
  C      479.377     560.973      56.556
  O      479.601     562.005      55.934
  N      479.146     559.791      55.891
  C      478.920     558.701      56.560
  N      478.760     557.545      55.841
  C      478.865     558.650      58.033
  C      479.117     559.805      58.662
  O      478.603     561.911      65.226
  O      478.795     559.849      63.676
  H      478.373     565.182      58.060
  H      478.341     559.322      64.381
  H      478.664     557.713      58.540
  H      479.116     559.848      59.741
  H      480.612     562.624      58.240
  H      477.915     563.069      57.539
  H      477.112     562.266      59.709
  H      479.434     563.868      60.929
  H      478.983     557.593      54.849
  H      477.856     563.013      62.585
  H      478.878     556.635      56.273
  H      477.945     561.376      61.896
  P      475.761     564.676      59.167
  C      475.555     565.636      56.761
  O      476.389     565.423      57.883
  O      475.031     565.841      59.988
  O      474.852     563.532      58.857
  H      474.245     565.485      60.452
  H      476.045     566.355      56.093
  H      474.592     566.054      57.078
  H      475.396     564.705      56.222
  H      482.663     559.802      64.404
  H      481.883     560.364      62.946
  H      481.230     558.996      63.814

 3  4  5  6  7  8  9  10  11  12  13  23  27  28  29  30  32 0
 6-311+G(2d,p)
 ****
 34  35 0
 6-311+G(2d,p)
 ****
 1  2  14  15  16  17  18  19  20  21  22  24  25  26 0
 3-21G
 ****
 31  33  36  37  38  39  40  41  42  43  44  45  46 0
 3-21G
 ****


