%nproc=1
%NoSave
%Mem=1900MB
#P OB98/GEN NMR

erre ene a

0 1
  C      -53.994      -8.707    -125.212
  O      -52.948      -9.080    -126.091
  P      -53.351      -9.557    -127.571
  C      -52.132      -7.617    -128.802
  O      -53.370      -8.237    -128.481
  C      -52.271      -6.098    -128.741
  O      -52.489      -5.659    -127.386
  C      -51.038      -5.339    -129.215
  O      -50.973      -5.241    -130.628
  C      -51.282      -3.972    -128.598
  O      -52.216      -3.229    -129.403
  C      -51.914      -4.337    -127.248
  N      -48.868      -1.438    -124.434
  C      -49.856      -1.073    -125.328
  N      -50.012       0.250    -125.544
  N      -50.624      -1.929    -125.950
  C      -50.347      -3.220    -125.641
  C      -49.396      -3.703    -124.770
  C      -48.547      -2.746    -124.098
  O      -47.621      -3.007    -123.337
  N      -49.422      -5.071    -124.713
  C      -50.385      -5.419    -125.541
  N      -50.948      -4.334    -126.163
  O      -54.901      -9.928    -127.431
  O      -52.545     -10.695    -128.100
  H      -51.745      -2.988    -130.226
  H      -55.182     -10.480    -128.185
  H      -48.299      -0.740    -123.983
  H      -50.696      -6.437    -125.737
  H      -52.725      -3.654    -126.978
  H      -50.373      -3.369    -128.527
  H      -49.412       0.956    -125.144
  H      -50.120      -5.769    -128.794
  H      -50.686       0.543    -126.242
  H      -53.149      -5.814    -129.335
  H      -51.829      -7.917    -129.808
  H      -51.366      -7.956    -128.098
  P      -49.533      -5.464    -131.302
  C      -50.307      -7.296    -132.974
  O      -49.540      -6.977    -131.829
  O      -48.547      -5.501    -130.042
  O      -49.147      -4.420    -132.295
  H      -47.649      -5.221    -130.304
  H      -49.994      -8.276    -133.345
  H      -50.155      -6.559    -133.768
  H      -51.367      -7.341    -132.711
  H      -53.581      -8.414    -124.270
  H      -54.653      -9.538    -125.070
  H      -54.538      -7.887    -125.633

 3  4  5  6  7  8  9  10  11  12  23  26  30  31 0
 6-311+G(2d,p)
 ****
 33  35  36  37  38 0
 6-311+G(2d,p)
 ****
 1  2  13  14  15  16  17  18  19  20  21  22  24  25 0
 3-21G
 ****
 27  28  29  32  34  39  40  41  42  43  44  45  46  47  48  49 0
 3-21G
 ****


