%nproc=1
%NoSave
%Mem=1900MB
#P OB98/GEN NMR

erre ene a

0 1
  C     -116.381     159.589     227.285
  O     -116.856     159.516     225.954
  P     -117.624     160.793     225.364
  C     -120.160     160.342     224.960
  O     -119.141     160.715     225.876
  C     -120.303     158.819     224.939
  O     -120.290     158.294     226.285
  C     -121.611     158.339     224.327
  O     -121.568     158.379     222.911
  C     -121.717     156.929     224.890
  O     -120.945     156.003     224.108
  C     -121.103     157.102     226.295
  N     -122.111     157.140     227.348
  C     -122.326     155.946     228.030
  O     -121.728     154.903     227.759
  N     -123.281     155.978     229.005
  C     -124.068     157.047     229.324
  O     -124.949     157.000     230.175
  C     -123.817     158.275     228.551
  C     -122.872     158.262     227.610
  O     -117.735     160.484     223.798
  O     -116.951     162.096     225.627
  H     -121.043     155.129     224.535
  H     -117.650     161.314     223.289
  H     -123.436     155.131     229.529
  H     -124.422     159.144     228.778
  H     -122.680     159.152     227.019
  H     -120.416     156.272     226.510
  H     -122.749     156.561     224.895
  H     -122.448     158.939     224.709
  H     -119.447     158.398     224.398
  H     -119.898     160.702     223.962
  H     -121.101     160.812     225.261
  P     -122.976     158.352     222.137
  C     -123.344     156.056     220.945
  O     -123.418     156.810     222.132
  O     -122.499     158.654     220.638
  O     -123.962     159.326     222.687
  H     -121.616     158.290     220.455
  H     -122.483     156.347     220.338
  H     -124.261     156.198     220.367
  H     -123.251     154.998     221.203
  H     -115.893     158.672     227.540
  H     -117.204     159.752     227.949
  H     -115.687     160.398     227.372

 3  4  5  6  7  8  9  10  11  12  13  23  28  29  30  31  32 0
 6-311+G(2d,p)
 ****
 33  34 0
 6-311+G(2d,p)
 ****
 1  2  14  15  16  17  18  19  20  21  22  24  25  26 0
 3-21G
 ****
 27  35  36  37  38  39  40  41  42  43  44  45 0
 3-21G
 ****


