%nproc=1
%NoSave
%Mem=1900MB
#P OB98/GEN NMR

erre ene a

0 1
  C      199.544    -353.796    -225.144
  O      199.579    -354.023    -223.751
  H      199.355    -352.735    -225.319
  H      198.740    -354.375    -225.605
  H      200.503    -354.062    -225.597
  P      199.779    -355.520    -223.217
  C      201.229    -355.387    -221.086
  O      199.910    -355.429    -221.620
  C      201.824    -353.983    -221.258
  O      201.028    -353.067    -220.465
  C      203.280    -353.899    -220.777
  O      204.157    -353.350    -221.758
  C      203.163    -353.179    -219.438
  O      204.323    -352.473    -219.052
  C      201.913    -352.312    -219.617
  N      201.250    -351.966    -218.362
  C      201.866    -351.011    -217.557
  O      202.913    -350.429    -217.826
  N      201.217    -350.720    -216.382
  C      200.057    -351.285    -215.942
  O      199.523    -350.980    -214.883
  C      199.471    -352.307    -216.823
  C      200.085    -352.597    -217.972
  O      200.855    -356.305    -223.888
  O      198.343    -356.199    -223.419
  H      204.459    -351.759    -219.710
  H      198.374    -356.804    -224.186
  H      201.644    -350.019    -215.798
  H      198.557    -352.785    -216.497
  H      199.678    -353.345    -218.647
  H      202.161    -351.380    -220.127
  H      202.968    -353.927    -218.661
  H      203.691    -354.900    -220.604
  H      201.726    -353.684    -222.306
  H      201.834    -356.123    -221.624
  H      201.205    -355.652    -220.024
  P      205.231    -354.182    -222.593
  C      205.521    -352.571    -224.654
  O      206.080    -353.164    -223.487
  O      204.723    -355.409    -223.272
  O      206.300    -354.651    -221.480
  H      206.644    -355.517    -221.780
  H      206.244    -351.926    -225.107
  H      204.655    -352.003    -224.386
  H      205.244    -353.338    -225.346

 6  7  8  9  10  11  12  13  14  15  16  26  31  32  33  34  35 0
 6-311+G(2d,p)
 ****
 36  37 0
 6-311+G(2d,p)
 ****
 1  2  3  4  5  17  18  19  20  21  22  23  24  25 0
 3-21G
 ****
 27  28  29  30  38  39  40  41  42  43  44  45 0
 3-21G
 ****


