%nproc=1
%NoSave
%Mem=1900MB
#P OB98/GEN NMR

erre ene a

0 1
  C     -766.197    -164.836    -762.101
  O     -765.350    -163.711    -762.007
  H     -766.712    -164.814    -763.066
  H     -766.946    -164.795    -761.305
  H     -765.625    -165.766    -762.029
  P     -764.215    -163.736    -760.875
  C     -763.520    -161.555    -759.653
  O     -763.530    -162.280    -760.877
  C     -762.987    -160.143    -759.886
  O     -761.564    -160.221    -760.186
  C     -763.665    -159.394    -761.047
  O     -763.778    -158.008    -760.695
  C     -762.649    -159.516    -762.169
  O     -762.794    -158.492    -763.144
  C     -761.346    -159.436    -761.372
  N     -758.471    -158.361    -765.345
  C     -759.404    -157.589    -764.674
  N     -759.657    -156.358    -765.174
  N     -760.038    -157.994    -763.605
  C     -759.677    -159.235    -763.205
  C     -758.779    -160.100    -763.783
  C     -758.096    -159.646    -764.978
  O     -757.275    -160.291    -765.622
  N     -758.740    -161.291    -763.108
  C     -759.633    -161.158    -762.135
  N     -760.224    -159.930    -762.156
  O     -763.095    -164.675    -761.527
  O     -764.653    -164.238    -759.540
  H     -762.746    -157.628    -762.689
  H     -763.213    -165.593    -761.219
  H     -758.026    -158.010    -766.179
  H     -759.892    -161.923    -761.417
  H     -761.099    -158.413    -761.069
  H     -762.751    -160.486    -762.661
  H     -759.188    -155.967    -765.976
  H     -764.648    -159.793    -761.321
  H     -760.308    -155.770    -764.666
  H     -763.090    -159.568    -758.952
  H     -762.872    -162.066    -758.940
  H     -764.536    -161.516    -759.244
  P     -765.233    -157.456    -760.290
  C     -765.176    -155.050    -761.292
  O     -765.144    -155.859    -760.121
  O     -765.395    -157.970    -758.780
  O     -766.338    -157.941    -761.162
  H     -766.337    -158.185    -758.611
  H     -765.108    -154.019    -761.015
  H     -766.093    -155.219    -761.817
  H     -764.351    -155.305    -761.924

 6  7  8  9  10  11  12  13  14  15  26  29  33  34 0
 6-311+G(2d,p)
 ****
 36  38  39  40  41 0
 6-311+G(2d,p)
 ****
 1  2  3  4  5  16  17  18  19  20  21  22  23  24  25 0
 3-21G
 ****
 27  28  30  31  32  35  37  42  43  44  45  46  47 0
 3-21G
 ****
 48  49 0
 3-21G
 ****


