%nproc=1
%NoSave
%Mem=1900MB
#P OB98/GEN NMR

erre ene a

0 1
  C      241.824     504.510     348.995
  O      241.744     505.856     348.533
  P      242.435     507.017     349.399
  C      241.726     508.942     350.961
  O      241.287     507.878     350.114
  C      240.534     509.805     351.430
  O      239.867     510.397     350.272
  C      239.486     509.002     352.223
  O      239.142     509.610     353.461
  C      238.345     508.821     351.224
  O      237.097     508.600     351.863
  C      238.475     510.087     350.361
  N      237.860     509.883     349.037
  C      236.476     509.773     348.996
  O      235.772     509.764     350.001
  N      235.914     509.618     347.751
  C      236.598     509.494     346.579
  O      236.055     509.311     345.491
  C      238.068     509.551     346.677
  C      238.617     509.738     347.890
  O      243.488     507.823     348.686
  O      243.083     506.216     350.630
  H      236.862     509.409     352.372
  H      243.955     506.625     350.836
  H      234.907     509.559     347.724
  H      238.644     509.426     345.787
  H      239.697     509.776     348.003
  H      237.954     510.936     350.827
  H      238.567     507.950     350.605
  H      239.874     508.017     352.501
  H      240.935     510.622     352.038
  H      242.427     509.582     350.417
  H      242.290     508.537     351.808
  P      239.216     508.874     354.889
  C      237.473     507.639     356.360
  O      237.887     507.987     355.058
  O      239.547     509.745     356.053
  O      240.376     507.780     354.669
  H      240.924     507.735     355.474
  H      236.817     506.770     356.297
  H      236.921     508.484     356.802
  H      238.334     507.394     357.008
  H      241.316     503.866     348.308
  H      241.365     504.436     349.959
  H      242.851     504.218     349.066

 3  4  5  6  7  8  9  10  11  12  13  23  28  29  30  31  32 0
 6-311+G(2d,p)
 ****
 33  34 0
 6-311+G(2d,p)
 ****
 1  2  14  15  16  17  18  19  20  21  22  24  25  26  27 0
 3-21G
 ****
 35  36  37  38  39  40  41  42  43  44  45 0
 3-21G
 ****


