%nproc=1
%NoSave
%Mem=1900MB
#P OB98/GEN NMR

erre ene a

0 1
  C       49.664     149.888     666.802
  O       48.393     149.705     666.199
  P       48.049     148.365     665.377
  C       47.821     149.264     662.961
  O       48.658     148.614     663.915
  C       48.200     148.815     661.549
  O       49.531     149.249     661.238
  C       48.196     147.304     661.350
  O       46.869     146.802     661.235
  C       49.062     147.181     660.096
  O       48.287     147.477     658.928
  C       50.107     148.286     660.331
  N       51.381     147.769     660.840
  C       51.925     146.670     660.170
  O       51.349     146.172     659.198
  N       53.127     146.161     660.595
  C       53.727     146.699     661.624
  N       54.947     146.202     661.961
  C       53.160     147.826     662.394
  C       52.001     148.310     661.947
  O       46.611     147.970     665.400
  O       49.030     147.261     665.979
  H       48.853     147.264     658.155
  H       48.660     146.786     666.768
  H       53.692     148.221     663.249
  H       51.530     149.143     662.444
  H       50.300     148.831     659.396
  H       49.502     146.186     659.969
  H       48.698     146.808     662.198
  H       47.505     149.292     660.847
  H       55.375     145.552     661.309
  H       47.978     150.347     663.043
  H       55.593     146.730     662.536
  H       46.774     149.038     663.184
  P       46.625     145.275     661.653
  C       47.128     143.921     659.493
  O       47.616     144.398     660.743
  O       45.170     144.965     661.058
  O       46.706     145.011     663.116
  H       44.490     145.000     661.762
  H       47.983     143.567     658.900
  H       46.629     144.725     658.941
  H       46.441     143.088     659.654
  H       49.691     150.836     667.297
  H       50.424     149.857     666.049
  H       49.836     149.109     667.515

 3  4  5  6  7  8  9  10  11  12  13  23  27  28  29  30  32 0
 6-311+G(2d,p)
 ****
 34  35 0
 6-311+G(2d,p)
 ****
 1  2  14  15  16  17  18  19  20  21  22  24  25  26 0
 3-21G
 ****
 31  33  36  37  38  39  40  41  42  43  44  45  46 0
 3-21G
 ****


