%nproc=1
%NoSave
%Mem=1900MB
#P OB98/GEN NMR

erre ene a

0 1
  C      177.128    -147.096     306.179
  O      177.483    -146.106     305.207
  P      176.759    -146.192     303.778
  C      178.917    -146.982     302.582
  O      177.553    -147.257     302.873
  C      179.715    -148.277     302.371
  O      179.333    -148.926     301.125
  C      181.232    -148.063     302.312
  O      181.856    -149.217     302.887
  C      181.517    -148.046     300.823
  O      182.892    -148.304     300.547
  C      180.529    -149.106     300.342
  N      182.465    -149.682     295.650
  C      182.997    -149.874     296.876
  N      182.418    -149.675     298.083
  C      181.142    -149.270     297.935
  C      180.471    -149.019     296.752
  C      181.187    -149.237     295.562
  N      180.658    -149.016     294.308
  N      179.191    -148.571     297.008
  C      179.099    -148.547     298.325
  N      180.244    -148.992     298.927
  O      177.115    -144.785     303.102
  O      175.283    -146.403     303.860
  H      183.404    -147.512     300.801
  H      176.320    -144.217     303.081
  H      184.021    -150.232     296.895
  H      178.237    -148.217     298.882
  H      180.902    -150.127     300.513
  H      181.261    -147.057     300.407
  H      181.590    -147.159     302.820
  H      179.473    -148.968     303.185
  H      179.369    -146.414     303.404
  H      181.247    -149.168     293.510
  H      179.721    -148.642     294.230
  H      178.974    -146.335     301.699
  P      182.175    -149.155     304.456
  C      184.694    -148.534     304.366
  O      183.369    -148.103     304.628
  O      182.866    -150.571     304.754
  O      180.975    -148.926     305.311
  H      182.739    -150.814     305.691
  H      185.228    -147.739     303.840
  H      184.726    -149.440     303.760
  H      185.197    -148.728     305.319
  H      177.679    -146.925     307.080
  H      177.360    -148.069     305.798
  H      176.080    -147.034     306.385

 3  4  5  6  7  8  9  10  11  12  22  25  29  30  31  32 0
 6-311+G(2d,p)
 ****
 33  36  37 0
 6-311+G(2d,p)
 ****
 1  2  13  14  15  16  17  18  19  20  21  23  24  26 0
 3-21G
 ****
 27  28  34  35  38  39  40  41  42  43  44  45  46  47  48 0
 3-21G
 ****


