%nproc=1
%NoSave
%Mem=1900MB
#P OB98/GEN NMR

erre ene a

0 1
  C     -162.184      21.231      16.796
  O     -161.839      20.351      15.742
  H     -163.041      21.833      16.482
  H     -161.350      21.902      17.022
  H     -162.460      20.667      17.690
  P     -160.599      19.359      15.957
  C     -158.386      19.677      17.251
  O     -159.372      20.281      16.424
  C     -157.122      20.530      17.267
  O     -156.513      20.549      15.961
  C     -157.363      21.988      17.656
  O     -157.456      22.116      19.066
  C     -156.116      22.637      17.078
  O     -154.988      22.370      17.932
  C     -155.965      21.880      15.744
  N     -155.523      23.520      10.966
  C     -154.563      23.009      11.822
  N     -153.299      22.970      11.348
  N     -154.819      22.594      13.036
  C     -156.113      22.760      13.395
  C     -157.149      23.268      12.643
  C     -156.867      23.671      11.282
  O     -157.689      24.114      10.484
  N     -158.311      23.340      13.370
  C     -157.986      22.843      14.547
  N     -156.659      22.487      14.620
  O     -160.269      18.449      14.812
  O     -160.976      18.546      17.282
  H     -154.190      22.618      17.427
  H     -161.438      17.715      17.067
  H     -155.259      23.839      10.048
  H     -158.670      22.714      15.378
  H     -154.915      21.760      15.451
  H     -156.201      23.719      16.977
  H     -153.008      23.529      10.553
  H     -158.240      22.406      17.148
  H     -152.575      22.647      11.978
  H     -156.404      20.054      17.949
  H     -158.173      18.683      16.841
  H     -158.764      19.562      18.273
  P     -158.641      22.963      19.745
  C     -159.437      25.394      19.362
  O     -158.341      24.488      19.349
  O     -158.828      22.722      21.206
  O     -159.932      22.626      18.865
  H     -160.427      21.827      19.178
  H     -159.097      26.369      19.080
  H     -159.856      25.433      20.346
  H     -160.182      25.062      18.670

 6  7  8  9  10  11  12  13  14  15  26  29  33  34 0
 6-311+G(2d,p)
 ****
 36  38  39  40  41 0
 6-311+G(2d,p)
 ****
 1  2  3  4  5  16  17  18  19  20  21  22  23  24  25 0
 3-21G
 ****
 27  28  30  31  32  35  37  42  43  44  45  46  47 0
 3-21G
 ****
 48  49 0
 3-21G
 ****


