%nproc=1
%NoSave
%Mem=1900MB
#P OB98/GEN NMR

erre ene a

0 1
  C      204.525    -203.372    -146.996
  O      203.675    -204.509    -146.821
  P      204.327    -205.973    -146.976
  C      203.200    -206.569    -149.234
  O      204.428    -206.328    -148.543
  C      203.441    -207.401    -150.499
  O      204.361    -206.695    -151.365
  C      204.082    -208.779    -150.245
  O      203.222    -209.891    -149.994
  C      204.754    -209.045    -151.593
  O      203.787    -209.587    -152.523
  C      205.198    -207.656    -152.064
  N      209.529    -205.833    -154.081
  C      208.279    -205.976    -154.585
  N      207.179    -206.469    -153.982
  C      207.456    -206.826    -152.721
  C      208.679    -206.757    -152.062
  C      209.760    -206.224    -152.806
  N      211.025    -206.097    -152.288
  N      208.573    -207.232    -150.774
  C      207.312    -207.614    -150.658
  N      206.588    -207.383    -151.806
  O      203.734    -207.037    -146.116
  O      205.858    -205.705    -146.594
  H      204.253    -209.702    -153.368
  H      206.195    -206.480    -146.089
  H      208.148    -205.647    -155.620
  H      206.881    -208.066    -149.770
  H      205.030    -207.510    -153.134
  H      205.562    -209.774    -151.517
  H      204.842    -208.717    -149.461
  H      202.495    -207.531    -151.037
  H      202.743    -205.608    -149.507
  H      211.748    -205.751    -152.900
  H      211.224    -206.427    -151.359
  H      202.520    -207.051    -148.524
  P      202.603    -210.152    -148.542
  C      204.522    -211.837    -147.922
  O      203.838    -210.626    -147.627
  O      201.416    -211.063    -148.513
  O      202.313    -208.672    -148.020
  H      203.112    -208.150    -147.833
  H      205.446    -211.868    -147.335
  H      204.783    -211.887    -148.986
  H      203.892    -212.693    -147.654
  H      203.955    -202.476    -146.864
  H      204.942    -203.387    -147.981
  H      205.314    -203.402    -146.274

 3  4  5  6  7  8  9  10  11  12  22  25  29  30  31  32 0
 6-311+G(2d,p)
 ****
 33  36  37 0
 6-311+G(2d,p)
 ****
 1  2  13  14  15  16  17  18  19  20  21  23  24  26 0
 3-21G
 ****
 27  28  34  35  38  39  40  41  42  43  44  45  46  47  48 0
 3-21G
 ****


