%nproc=1
%NoSave
%Mem=1900MB
#P OB98/GEN NMR

erre ene a

0 1
  C      152.409     329.605     559.251
  O      152.965     328.905     560.373
  P      154.360     328.121     560.286
  C      153.741     326.134     561.805
  O      154.568     327.283     561.638
  C      153.723     325.656     563.262
  O      155.062     325.394     563.730
  C      153.124     326.650     564.249
  O      151.711     326.620     564.188
  C      153.721     326.168     565.566
  O      152.979     325.046     566.074
  C      155.128     325.723     565.129
  N      158.678     327.412     568.407
  C      157.849     326.343     568.442
  N      156.925     325.962     567.533
  C      156.923     326.803     566.482
  C      157.707     327.935     566.303
  C      158.623     328.233     567.326
  N      159.455     329.328     567.295
  N      157.405     328.557     565.113
  C      156.469     327.806     564.568
  N      156.139     326.737     565.359
  O      155.522     328.978     559.913
  O      154.117     326.983     559.183
  H      153.340     324.831     566.952
  H      154.962     326.758     558.750
  H      157.935     325.714     569.321
  H      155.996     327.994     563.611
  H      155.447     324.816     565.653
  H      153.726     326.941     566.339
  H      153.491     327.661     564.034
  H      153.174     324.706     563.299
  H      154.126     325.334     561.162
  H      160.057     329.490     568.084
  H      159.388     329.972     566.520
  H      152.725     326.387     561.484
  P      150.875     327.987     564.144
  C      148.971     327.406     565.761
  O      149.338     327.615     564.407
  O      151.123     328.850     562.947
  O      151.294     328.735     565.493
  H      151.241     329.702     565.359
  H      149.272     326.396     566.068
  H      147.882     327.497     565.843
  H      149.446     328.146     566.412
  H      151.479     330.052     559.535
  H      152.244     328.918     558.448
  H      153.089     330.368     558.934

 3  4  5  6  7  8  9  10  11  12  22  25  29  30  31  32 0
 6-311+G(2d,p)
 ****
 33  36  37 0
 6-311+G(2d,p)
 ****
 1  2  13  14  15  16  17  18  19  20  21  23  24  26 0
 3-21G
 ****
 27  28  34  35  38  39  40  41  42  43  44  45  46  47  48 0
 3-21G
 ****


