%nproc=1
%NoSave
%Mem=1900MB
#P OB98/GEN NMR

erre ene a

0 1
  C      591.006     282.416    -520.871
  O      590.760     281.788    -522.140
  P      592.042     281.316    -522.965
  C      591.604     278.749    -522.900
  O      592.436     279.827    -522.484
  C      592.401     277.446    -522.871
  O      593.401     277.403    -523.910
  C      593.173     277.229    -521.572
  O      592.303     276.837    -520.521
  C      594.160     276.150    -522.005
  O      593.528     274.862    -522.012
  C      594.491     276.573    -523.445
  N      598.625     277.442    -526.358
  C      597.547     276.642    -526.520
  N      596.492     276.462    -525.706
  C      596.602     277.240    -524.607
  C      597.642     278.109    -524.301
  C      598.692     278.197    -525.235
  N      599.787     279.013    -525.048
  N      597.402     278.727    -523.086
  C      596.268     278.219    -522.660
  N      595.740     277.321    -523.548
  O      593.227     282.216    -522.375
  O      591.912     281.491    -524.436
  H      592.725     274.938    -522.572
  H      593.493     282.890    -523.030
  H      597.543     276.058    -527.441
  H      595.799     278.461    -521.714
  H      594.579     275.712    -524.128
  H      595.044     276.084    -521.337
  H      593.706     278.146    -521.294
  H      591.704     276.611    -523.034
  H      591.223     278.928    -523.904
  H      600.527     278.965    -525.728
  H      599.886     279.518    -524.176
  H      590.736     278.694    -522.244
  P      592.042     277.908    -519.347
  C      589.561     277.544    -519.892
  O      590.580     278.489    -519.668
  O      593.012     279.099    -519.773
  O      592.236     277.373    -517.962
  H      592.928     279.311    -520.721
  H      588.616     278.078    -520.067
  H      589.445     276.900    -519.006
  H      589.791     276.932    -520.770
  H      590.074     282.685    -520.419
  H      591.598     283.295    -521.017
  H      591.529     281.736    -520.232

 3  4  5  6  7  8  9  10  11  12  22  25  29  30  31  32 0
 6-311+G(2d,p)
 ****
 33  36  37 0
 6-311+G(2d,p)
 ****
 1  2  13  14  15  16  17  18  19  20  21  23  24  26 0
 3-21G
 ****
 27  28  34  35  38  39  40  41  42  43  44  45  46  47  48 0
 3-21G
 ****


