%nproc=1
%NoSave
%Mem=1900MB
#P OB98/GEN NMR

erre ene a

0 1
  C       88.082     265.712    -122.903
  O       86.885     266.330    -122.467
  H       88.199     264.766    -122.371
  H       88.935     266.351    -122.672
  H       88.043     265.511    -123.976
  P       86.371     267.652    -123.223
  C       88.337     269.062    -122.300
  O       87.664     268.577    -123.455
  C       89.681     269.680    -122.678
  O       89.524     270.435    -123.914
  C       90.244     270.666    -121.618
  O       91.682     270.606    -121.703
  C       89.714     271.990    -122.143
  O       90.300     273.100    -121.521
  C       89.978     271.788    -123.644
  N       89.318     272.739    -124.538
  C       89.632     274.084    -124.373
  O       90.422     274.534    -123.550
  N       88.980     274.953    -125.225
  C       88.084     274.595    -126.195
  O       87.556     275.410    -126.947
  C       87.791     273.159    -126.303
  C       88.417     272.307    -125.489
  O       85.197     268.341    -122.616
  O       86.045     267.126    -124.704
  H       85.078     267.013    -124.804
  H       90.070     273.908    -122.030
  H       89.198     275.927    -125.132
  H       87.078     272.850    -127.054
  H       88.226     271.242    -125.555
  H       91.063     271.802    -123.839
  H       88.636     272.064    -121.946
  H       89.932     270.422    -120.602
  H       90.404     268.882    -122.889
  H       88.494     268.220    -121.612
  H       87.703     269.813    -121.797
  P       92.612     269.990    -120.556
  C       92.299     272.079    -119.056
  O       92.196     270.664    -119.155
  O       94.080     270.065    -120.849
  O       92.145     268.457    -120.410
  H       92.878     267.921    -120.058
  H       91.994     272.391    -118.079
  H       91.668     272.535    -119.790
  H       93.313     272.375    -119.225

 6  7  8  9  10  11  12  13  14  15  16  27  31  32  33  34  35 0
 6-311+G(2d,p)
 ****
 36  37 0
 6-311+G(2d,p)
 ****
 1  2  3  4  5  17  18  19  20  21  22  23  24  25 0
 3-21G
 ****
 26  28  29  30  38  39  40  41  42  43  44  45 0
 3-21G
 ****


