%nproc=1
%NoSave
%Mem=1900MB
#P OB98/GEN NMR

erre ene a

0 1
  C      -62.070     469.925      91.938
  O      -62.467     468.664      92.468
  P      -61.574     468.024      93.638
  C      -59.859     467.076      91.928
  O      -60.075     467.904      93.070
  C      -59.162     465.778      92.317
  O      -58.940     464.977      91.114
  C      -57.802     465.961      92.991
  O      -57.638     464.886      93.930
  C      -56.819     465.764      91.850
  O      -55.513     465.425      92.312
  C      -57.529     464.663      91.059
  N      -54.495     462.230      87.741
  C      -54.730     462.029      89.050
  N      -55.563     462.714      89.865
  C      -56.164     463.715      89.201
  C      -55.993     464.068      87.869
  C      -55.113     463.270      87.112
  N      -54.869     463.469      85.782
  N      -56.760     465.165      87.551
  C      -57.395     465.475      88.673
  N      -57.079     464.613      89.685
  O      -62.083     466.503      93.672
  O      -61.700     468.668      94.974
  H      -54.929     465.334      91.538
  H      -62.569     466.331      94.507
  H      -54.207     461.192      89.507
  H      -58.082     466.304      88.787
  H      -57.387     463.678      91.505
  H      -56.749     466.692      91.268
  H      -57.676     466.916      93.497
  H      -59.834     465.201      92.959
  H      -59.224     467.622      91.218
  H      -54.331     462.773      85.279
  H      -55.460     464.112      85.266
  H      -60.824     466.862      91.442
  P      -56.337     464.922      94.862
  C      -55.033     463.338      93.281
  O      -55.085     464.597      93.923
  O      -56.490     463.604      95.765
  O      -56.222     466.149      95.711
  H      -56.035     463.732      96.618
  H      -54.538     463.455      92.313
  H      -56.032     462.912      93.127
  H      -54.445     462.646      93.893
  H      -62.756     470.222      91.172
  H      -61.086     469.844      91.525
  H      -62.070     470.656      92.719

 3  4  5  6  7  8  9  10  11  12  22  25  29  30  31  32 0
 6-311+G(2d,p)
 ****
 33  36  37 0
 6-311+G(2d,p)
 ****
 1  2  13  14  15  16  17  18  19  20  21  23  24  26 0
 3-21G
 ****
 27  28  34  35  38  39  40  41  42  43  44  45  46  47  48 0
 3-21G
 ****


