%nproc=1
%NoSave
%Mem=1900MB
#P OB98/GEN NMR

erre ene a

0 1
  C     -514.165    -594.928    -735.738
  O     -514.139    -594.107    -736.902
  P     -512.984    -594.358    -737.979
  C     -514.292    -592.930    -739.775
  O     -513.097    -593.150    -739.044
  C     -514.031    -592.009    -740.962
  O     -513.908    -590.630    -740.474
  C     -512.732    -592.310    -741.753
  O     -513.013    -592.025    -743.138
  C     -511.744    -591.320    -741.185
  O     -510.667    -591.069    -742.063
  C     -512.670    -590.096    -740.953
  N     -512.112    -589.144    -739.989
  C     -511.014    -588.380    -740.389
  O     -510.474    -588.490    -741.490
  N     -510.533    -587.502    -739.452
  C     -510.985    -587.350    -738.163
  O     -510.496    -586.555    -737.379
  C     -512.112    -588.209    -737.791
  C     -512.624    -589.038    -738.711
  O     -513.555    -595.616    -738.775
  O     -511.620    -594.539    -737.390
  H     -514.520    -595.606    -738.860
  H     -510.220    -590.254    -741.778
  H     -509.759    -586.908    -739.742
  H     -512.486    -588.144    -736.782
  H     -513.458    -589.695    -738.439
  H     -512.867    -589.592    -741.902
  H     -511.348    -591.702    -740.233
  H     -512.436    -593.361    -741.628
  H     -514.913    -592.027    -741.622
  H     -515.037    -592.482    -739.111
  H     -514.692    -593.901    -740.117
  P     -512.994    -593.256    -744.176
  C     -514.837    -592.339    -745.794
  O     -513.482    -592.687    -745.588
  O     -514.261    -594.100    -743.665
  O     -511.728    -594.056    -744.175
  H     -515.048    -593.542    -743.529
  H     -514.905    -591.673    -746.672
  H     -515.250    -591.806    -744.923
  H     -515.429    -593.241    -745.992
  H     -514.989    -594.642    -735.118
  H     -513.251    -594.806    -735.195
  H     -514.275    -595.952    -736.027

 3  4  5  6  7  8  9  10  11  12  13  24  28  29  30  31  32 0
 6-311+G(2d,p)
 ****
 33  34 0
 6-311+G(2d,p)
 ****
 1  2  14  15  16  17  18  19  20  21  22  23  25  26  27 0
 3-21G
 ****
 35  36  37  38  39  40  41  42  43  44  45 0
 3-21G
 ****


