%nproc=1
%NoSave
%Mem=1900MB
#P OB98/GEN NMR

erre ene a

0 1
  C      205.975    1132.886    -893.450
  O      206.994    1132.530    -894.390
  P      207.408    1130.984    -894.430
  C      209.147    1131.637    -896.260
  O      208.863    1130.863    -895.090
  C      210.551    1132.250    -896.180
  O      210.619    1133.332    -895.230
  C      211.626    1131.258    -895.760
  O      212.007    1130.459    -896.880
  C      212.745    1132.201    -895.290
  O      213.549    1132.658    -896.390
  C      211.931    1133.340    -894.670
  N      213.868    1135.229    -890.350
  C      214.329    1135.356    -891.640
  N      215.387    1136.135    -891.800
  N      213.719    1134.806    -892.680
  C      212.647    1134.078    -892.350
  C      212.079    1133.870    -891.090
  C      212.740    1134.489    -889.960
  O      212.380    1134.413    -888.790
  N      210.939    1133.094    -891.170
  C      210.897    1132.737    -892.440
  N      211.858    1133.351    -893.210
  O      206.429    1130.374    -895.580
  O      207.217    1130.261    -893.140
  H      212.953    1132.989    -897.090
  H      205.767    1129.788    -895.170
  H      214.347    1135.653    -889.580
  H      210.157    1132.071    -892.840
  H      212.373    1134.341    -894.920
  H      213.425    1131.693    -894.610
  H      215.896    1136.581    -891.070
  H      211.266    1130.647    -894.940
  H      215.754    1136.264    -892.770
  H      210.777    1132.655    -897.180
  H      208.403    1132.428    -896.390
  H      209.059    1130.965    -897.130
  P      211.884    1128.875    -896.740
  C      210.758    1128.017    -898.920
  O      211.960    1128.239    -898.210
  O      210.331    1128.664    -896.320
  O      212.773    1128.263    -895.720
  H      210.269    1127.993    -895.590
  H      210.966    1128.134    -900.000
  H      209.997    1128.754    -898.660
  H      210.408    1127.006    -898.720
  H      205.783    1133.937    -893.513
  H      206.301    1132.642    -892.461
  H      205.079    1132.346    -893.674

 3  4  5  6  7  8  9  10  11  12  23  26  30  31 0
 6-311+G(2d,p)
 ****
 33  35  36  37  38 0
 6-311+G(2d,p)
 ****
 1  2  13  14  15  16  17  18  19  20  21  22  24  25 0
 3-21G
 ****
 27  28  29  32  34  39  40  41  42  43  44  45  46  47  48  49 0
 3-21G
 ****


