%nproc=1
%NoSave
%Mem=1900MB
#P OB98/GEN NMR

erre ene a

0 1
  C      474.495     557.267     173.988
  O      474.102     557.047     172.649
  H      473.595     557.357     174.605
  H      475.069     558.192     174.074
  H      475.087     556.423     174.357
  P      475.237     556.947     171.522
  C      477.208     555.457     172.268
  O      475.915     555.499     171.676
  C      477.914     554.143     171.903
  O      477.240     553.071     172.605
  C      477.858     553.847     170.397
  O      479.137     553.581     169.831
  C      476.805     552.746     170.299
  O      476.940     551.896     169.179
  C      476.907     552.043     171.651
  N      475.690     551.342     172.053
  C      475.706     549.953     172.005
  O      476.673     549.265     171.678
  N      474.536     549.336     172.372
  C      473.386     549.953     172.757
  O      472.372     549.342     173.075
  C      473.425     551.421     172.763
  C      474.552     552.042     172.418
  O      476.201     558.085     171.470
  O      474.415     556.813     170.154
  H      476.227     551.226     169.224
  H      474.412     557.670     169.689
  H      474.539     548.325     172.352
  H      472.522     551.945     173.057
  H      474.620     553.126     172.415
  H      477.720     551.314     171.647
  H      475.822     553.226     170.220
  H      477.510     554.723     169.837
  H      478.946     554.185     172.271
  H      477.085     555.533     173.353
  H      477.804     556.307     171.914
  P      479.995     554.639     168.992
  C      480.283     557.194     169.492
  O      480.374     555.858     169.954
  O      479.453     554.984     167.647
  O      481.403     553.882     168.763
  H      481.744     554.177     167.900
  H      480.576     557.863     170.274
  H      479.274     557.403     169.203
  H      480.930     557.325     168.650

 6  7  8  9  10  11  12  13  14  15  16  26  31  32  33  34  35 0
 6-311+G(2d,p)
 ****
 36  37 0
 6-311+G(2d,p)
 ****
 1  2  3  4  5  17  18  19  20  21  22  23  24  25 0
 3-21G
 ****
 27  28  29  30  38  39  40  41  42  43  44  45 0
 3-21G
 ****


