%nproc=1
%NoSave
%Mem=1900MB
#P OB98/GEN NMR

erre ene a

0 1
  C      386.338     -73.966     845.208
  O      386.380     -73.731     846.598
  H      386.015     -74.988     845.029
  H      387.333     -73.822     844.769
  H      385.616     -73.285     844.724
  P      386.851     -72.266     847.071
  C      389.307     -73.065     847.382
  O      388.423     -72.174     846.713
  C      390.662     -72.386     847.618
  O      391.209     -71.904     846.374
  C      390.619     -71.199     848.571
  O      390.658     -71.625     849.935
  C      391.876     -70.435     848.156
  O      393.053     -71.014     848.750
  C      391.872     -70.640     846.633
  N      391.364     -65.624     846.250
  C      392.178     -66.374     847.086
  N      392.912     -65.695     847.987
  N      392.235     -67.682     847.045
  C      391.420     -68.230     846.112
  C      390.585     -67.588     845.222
  C      390.542     -66.143     845.248
  O      389.907     -65.414     844.496
  N      389.917     -68.495     844.427
  C      390.323     -69.671     844.865
  N      391.209     -69.567     845.899
  O      386.843     -72.365     848.665
  O      386.017     -71.135     846.580
  H      393.832     -70.751     848.236
  H      386.639     -71.486     849.040
  H      391.381     -64.626     846.310
  H      390.003     -70.630     844.461
  H      392.891     -70.718     846.234
  H      391.833     -69.397     848.471
  H      392.663     -64.757     848.276
  H      389.723     -70.579     848.376
  H      393.488     -66.234     848.614
  H      391.349     -73.167     848.002
  H      389.451     -73.958     846.767
  H      388.863     -73.360     848.350
  P      390.139     -70.603     851.044
  C      392.575     -69.760     851.343
  O      391.222     -69.416     851.116
  O      390.356     -71.391     852.422
  O      388.709     -70.164     850.879
  H      389.829     -70.978     853.139
  H      393.170     -68.871     851.365
  H      392.917     -70.399     850.556
  H      392.661     -70.270     852.280

 6  7  8  9  10  11  12  13  14  15  26  29  33  34 0
 6-311+G(2d,p)
 ****
 36  38  39  40  41 0
 6-311+G(2d,p)
 ****
 1  2  3  4  5  16  17  18  19  20  21  22  23  24  25 0
 3-21G
 ****
 27  28  30  31  32  35  37  42  43  44  45  46  47 0
 3-21G
 ****
 48  49 0
 3-21G
 ****


