%nproc=1
%NoSave
%Mem=1900MB
#P OB98/GEN NMR

erre ene a

0 1
  C      597.317     112.676     117.809
  O      598.192     113.041     118.862
  P      598.014     112.397     120.319
  C      600.379     111.424     120.600
  O      598.995     111.132     120.434
  C      600.759     111.380     122.077
  O      600.443     110.090     122.648
  C      602.241     111.573     122.339
  O      602.644     112.920     122.150
  C      602.359     111.069     123.771
  O      601.940     112.075     124.707
  C      601.353     109.894     123.762
  N      602.008     108.599     123.691
  C      602.505     108.093     124.899
  O      602.447     108.766     125.929
  N      603.061     106.838     124.901
  C      603.221     106.204     123.789
  N      603.726     104.939     123.854
  C      602.864     106.770     122.471
  C      602.247     107.950     122.499
  O      596.601     112.133     120.731
  O      598.702     113.461     121.300
  H      598.081     113.664     122.028
  H      600.979     111.962     124.827
  H      603.081     106.228     121.563
  H      601.920     108.436     121.583
  H      600.731     109.923     124.666
  H      603.379     110.784     124.037
  H      602.821     110.921     121.674
  H      600.172     112.145     122.603
  H      603.948     104.576     124.776
  H      600.573     112.425     120.200
  H      603.592     104.252     123.112
  H      600.973     110.701     120.028
  P      603.785     113.190     121.053
  C      602.520     114.887     119.563
  O      603.053     113.584     119.687
  O      604.372     111.730     120.765
  O      604.859     114.132     121.496
  H      605.334     111.784     120.614
  H      602.382     115.108     118.498
  H      603.190     115.638     119.996
  H      601.543     114.934     120.057
  H      597.589     113.205     116.919
  H      596.312     112.925     118.078
  H      597.389     111.623     117.634

 3  4  5  6  7  8  9  10  11  12  13  24  27  28  29  30  32 0
 6-311+G(2d,p)
 ****
 34  35 0
 6-311+G(2d,p)
 ****
 1  2  14  15  16  17  18  19  20  21  22  23  25  26 0
 3-21G
 ****
 31  33  36  37  38  39  40  41  42  43  44  45  46 0
 3-21G
 ****


