%nproc=1
%NoSave
%Mem=1900MB
#P OB98/GEN NMR

erre ene a

0 1
  C      461.180    -453.206    -596.089
  O      462.158    -454.228    -595.941
  P      462.693    -454.509    -594.454
  C      460.560    -455.927    -593.931
  O      461.399    -454.844    -593.565
  C      460.943    -457.169    -593.125
  O      462.359    -457.444    -593.279
  C      460.691    -457.049    -591.630
  O      459.337    -457.322    -591.329
  C      461.664    -458.097    -591.072
  O      461.101    -459.416    -591.169
  C      462.873    -457.939    -592.008
  N      467.134    -457.636    -589.307
  C      466.257    -458.694    -589.470
  N      466.595    -459.859    -588.866
  N      465.157    -458.625    -590.171
  C      464.942    -457.401    -590.708
  C      465.721    -456.269    -590.607
  C      466.963    -456.379    -589.870
  O      467.818    -455.502    -589.772
  N      465.169    -455.207    -591.262
  C      464.070    -455.704    -591.797
  N      463.897    -457.035    -591.509
  O      463.145    -453.057    -593.949
  O      463.782    -455.523    -594.352
  H      460.310    -459.469    -590.603
  H      464.114    -452.953    -594.041
  H      467.975    -457.747    -588.768
  H      463.377    -455.155    -592.411
  H      463.364    -458.894    -592.206
  H      461.887    -457.924    -590.010
  H      467.414    -459.972    -588.294
  H      460.979    -456.050    -591.267
  H      465.963    -460.638    -588.976
  H      460.393    -458.024    -593.543
  H      460.674    -456.134    -594.991
  H      459.517    -455.656    -593.734
  P      458.741    -456.727    -589.961
  C      457.996    -454.565    -591.204
  O      458.711    -455.132    -590.112
  O      459.922    -456.979    -588.904
  O      457.463    -457.353    -589.515
  H      459.538    -457.203    -588.032
  H      457.623    -453.579    -590.903
  H      457.143    -455.191    -591.500
  H      458.668    -454.448    -592.053
  H      460.909    -453.118    -597.120
  H      461.582    -452.276    -595.746
  H      460.314    -453.455    -595.512

 3  4  5  6  7  8  9  10  11  12  23  26  30  31 0
 6-311+G(2d,p)
 ****
 33  35  36  37  38 0
 6-311+G(2d,p)
 ****
 1  2  13  14  15  16  17  18  19  20  21  22  24  25 0
 3-21G
 ****
 27  28  29  32  34  39  40  41  42  43  44  45  46  47  48  49 0
 3-21G
 ****


