%nproc=1
%NoSave
%Mem=1900MB
#P OB98/GEN NMR

erre ene a

0 1
  C     -246.900    -848.646    -352.539
  O     -247.942    -848.143    -353.346
  H     -246.078    -847.930    -352.544
  H     -246.542    -849.594    -352.944
  H     -247.233    -848.786    -351.508
  P     -249.381    -848.846    -353.288
  C     -248.975    -850.202    -355.444
  O     -249.228    -850.253    -354.051
  C     -249.161    -851.581    -356.083
  O     -250.587    -851.880    -356.160
  C     -248.591    -851.691    -357.511
  O     -248.167    -853.042    -357.696
  C     -249.824    -851.402    -358.352
  O     -249.643    -851.833    -359.685
  C     -250.902    -852.123    -357.544
  N     -252.252    -851.684    -357.893
  C     -252.923    -852.436    -358.848
  O     -252.425    -853.412    -359.411
  N     -254.181    -852.011    -359.178
  C     -254.793    -850.896    -358.690
  O     -255.912    -850.542    -359.042
  C     -254.015    -850.109    -357.711
  C     -252.800    -850.540    -357.358
  O     -250.532    -848.013    -353.741
  O     -249.538    -849.297    -351.756
  H     -250.489    -851.775    -360.180
  H     -250.477    -849.289    -351.498
  H     -254.687    -852.550    -359.857
  H     -254.469    -849.210    -357.322
  H     -252.204    -849.986    -356.650
  H     -250.849    -853.211    -357.713
  H     -250.026    -850.326    -358.380
  H     -247.764    -851.002    -357.698
  H     -248.720    -852.336    -355.420
  H     -247.945    -849.861    -355.591
  H     -249.662    -849.479    -355.914
  P     -246.622    -853.447    -357.803
  C     -246.504    -853.935    -360.328
  O     -246.086    -853.076    -359.274
  O     -246.319    -854.850    -357.376
  O     -245.859    -852.395    -356.852
  H     -245.040    -852.797    -356.507
  H     -246.089    -853.593    -361.253
  H     -247.572    -853.928    -360.392
  H     -246.165    -854.931    -360.132

 6  7  8  9  10  11  12  13  14  15  16  26  31  32  33  34  35 0
 6-311+G(2d,p)
 ****
 36  37 0
 6-311+G(2d,p)
 ****
 1  2  3  4  5  17  18  19  20  21  22  23  24  25 0
 3-21G
 ****
 27  28  29  30  38  39  40  41  42  43  44  45 0
 3-21G
 ****


