%nproc=1
%NoSave
%Mem=1900MB
#P OB98/GEN NMR

erre ene a

0 1
  C      -78.706      29.516      99.787
  O      -77.378      29.696      99.297
  P      -76.714      31.150      99.409
  C      -77.003      33.480      98.333
  O      -77.407      32.113      98.327
  C      -76.840      34.002      96.896
  O      -75.719      33.321      96.272
  C      -78.043      33.750      95.979
  O      -79.074      34.730      95.932
  C      -77.374      33.759      94.604
  O      -77.221      35.116      94.145
  C      -75.999      33.151      94.867
  N      -76.169      29.801      91.002
  C      -76.269      31.148      91.036
  N      -76.214      31.965      92.107
  C      -76.020      31.262      93.235
  C      -75.897      29.887      93.355
  C      -75.981      29.139      92.168
  N      -75.889      27.766      92.136
  N      -75.716      29.528      94.674
  C      -75.751      30.666      95.340
  N      -75.918      31.743      94.513
  O      -75.223      31.185      99.439
  O      -77.321      31.700     100.789
  H      -76.849      35.065      93.245
  H      -76.636      32.221     101.251
  H      -76.416      31.633      90.074
  H      -75.659      30.756      96.413
  H      -75.203      33.663      94.313
  H      -77.967      33.238      93.848
  H      -78.480      32.763      96.171
  H      -76.613      35.075      96.928
  H      -76.054      33.578      98.869
  H      -76.004      27.305      91.247
  H      -75.808      27.253      93.002
  H      -77.746      34.040      98.902
  P      -80.361      34.631      96.881
  C      -82.398      32.989      96.972
  O      -81.155      33.325      96.395
  O      -81.189      35.866      96.959
  O      -79.729      34.166      98.277
  H      -79.371      33.263      98.275
  H      -82.867      32.210      96.366
  H      -83.059      33.858      97.006
  H      -82.241      32.602      97.985
  H      -79.005      28.499      99.642
  H      -79.373      30.163      99.256
  H      -78.736      29.751     100.830

 3  4  5  6  7  8  9  10  11  12  22  25  29  30  31  32 0
 6-311+G(2d,p)
 ****
 33  36  37 0
 6-311+G(2d,p)
 ****
 1  2  13  14  15  16  17  18  19  20  21  23  24  26 0
 3-21G
 ****
 27  28  34  35  38  39  40  41  42  43  44  45  46  47  48 0
 3-21G
 ****


