%nproc=1
%NoSave
%Mem=1900MB
#P OB98/GEN NMR

erre ene a

0 1
  C       -9.642     205.206     197.890
  O       -9.432     206.325     198.728
  P       -9.959     207.769     198.280
  C       -7.529     208.599     198.156
  O       -8.779     208.493     197.474
  C       -6.376     208.433     197.168
  O       -6.684     207.409     196.196
  C       -6.062     209.685     196.363
  O       -5.354     210.631     197.145
  C       -5.271     209.097     195.199
  O       -3.900     208.883     195.574
  C       -5.983     207.755     194.981
  N       -6.378     207.822     189.894
  C       -5.313     207.955     190.718
  N       -5.294     207.962     192.064
  C       -6.541     207.841     192.557
  C       -7.723     207.738     191.840
  C       -7.613     207.703     190.440
  N       -8.680     207.507     189.594
  N       -8.806     207.662     192.703
  C       -8.279     207.735     193.911
  N       -6.911     207.777     193.869
  O      -10.579     208.584     199.363
  O      -11.029     207.445     197.133
  H       -3.467     209.757     195.602
  H      -11.904     207.781     197.403
  H       -4.350     208.057     190.225
  H       -8.842     207.742     194.836
  H       -5.267     206.942     194.790
  H       -5.270     209.746     194.319
  H       -6.994     210.125     195.977
  H       -5.487     208.105     197.734
  H       -7.484     207.812     198.917
  H       -8.467     207.358     188.617
  H       -9.537     207.117     189.977
  H       -7.467     209.573     198.652
  P       -6.045     212.021     197.532
  C       -5.297     213.049     195.306
  O       -6.388     212.768     196.158
  O       -5.316     212.845     198.543
  O       -7.493     211.585     198.072
  H       -7.780     212.210     198.764
  H       -4.754     213.923     195.680
  H       -5.676     213.271     194.305
  H       -4.616     212.197     195.244
  H       -9.225     204.334     198.349
  H       -9.167     205.373     196.946
  H      -10.692     205.064     197.741

 3  4  5  6  7  8  9  10  11  12  22  25  29  30  31  32 0
 6-311+G(2d,p)
 ****
 33  36  37 0
 6-311+G(2d,p)
 ****
 1  2  13  14  15  16  17  18  19  20  21  23  24  26 0
 3-21G
 ****
 27  28  34  35  38  39  40  41  42  43  44  45  46  47  48 0
 3-21G
 ****


