%nproc=1
%NoSave
%Mem=1900MB
#P OB98/GEN NMR

erre ene a

0 1
  C      804.077     138.118     898.815
  O      802.934     138.922     899.069
  P      801.693     138.814     898.044
  C      800.167     137.393     899.631
  O      800.932     137.451     898.430
  C      799.179     136.212     899.573
  O      798.239     136.407     898.474
  C      799.842     134.836     899.400
  O      799.073     133.915     900.202
  C      799.652     134.564     897.924
  O      799.714     133.162     897.642
  C      798.268     135.186     897.691
  N      797.988     135.466     896.286
  C      797.162     134.565     895.625
  O      796.718     133.536     896.153
  N      796.883     134.858     894.322
  C      797.414     135.883     893.590
  O      797.140     136.118     892.422
  C      798.381     136.746     894.314
  C      798.631     136.483     895.601
  O      802.460     138.463     896.691
  O      800.842     140.042     898.026
  H      803.230     137.888     896.804
  H      800.625     132.837     897.836
  H      796.253     134.238     893.840
  H      798.878     137.521     893.760
  H      799.358     137.073     896.160
  H      797.474     134.539     898.078
  H      800.422     135.079     897.339
  H      800.882     134.827     899.709
  H      798.602     136.225     900.516
  H      799.591     138.323     899.758
  H      800.854     137.314     900.482
  P      799.801     133.195     901.435
  C      797.978     133.991     903.147
  O      799.349     133.943     902.771
  O      801.308     133.703     901.226
  O      799.704     131.698     901.442
  H      801.355     134.657     901.063
  H      797.924     134.330     904.186
  H      797.534     132.990     903.089
  H      797.438     134.673     902.508
  H      804.813     138.295     899.572
  H      804.483     138.368     897.857
  H      803.796     137.086     898.825

 3  4  5  6  7  8  9  10  11  12  13  24  28  29  30  31  32 0
 6-311+G(2d,p)
 ****
 33  34 0
 6-311+G(2d,p)
 ****
 1  2  14  15  16  17  18  19  20  21  22  23  25  26  27 0
 3-21G
 ****
 35  36  37  38  39  40  41  42  43  44  45 0
 3-21G
 ****


