%nproc=1
%NoSave
%Mem=1900MB
#P OB98/GEN NMR

erre ene a

0 1
  C      255.558    -793.803     412.314
  O      254.875    -793.866     411.057
  P      253.267    -793.805     411.067
  C      252.882    -796.385     411.097
  O      252.727    -795.136     411.775
  C      252.174    -797.503     411.871
  O      252.751    -797.689     413.179
  C      250.690    -797.245     412.104
  O      249.914    -797.608     410.970
  C      250.402    -798.195     413.251
  O      250.237    -799.529     412.755
  C      251.696    -798.088     414.087
  N      249.632    -797.168     418.612
  C      249.522    -798.271     417.786
  N      248.743    -799.292     418.240
  N      250.109    -798.377     416.629
  C      250.861    -797.300     416.314
  C      251.042    -796.147     417.036
  C      250.384    -796.038     418.315
  O      250.426    -795.077     419.085
  N      251.876    -795.268     416.385
  C      252.210    -795.894     415.264
  N      251.595    -797.126     415.173
  O      252.906    -794.042     409.524
  O      252.712    -792.520     411.577
  H      251.105    -799.826     412.415
  H      252.052    -793.619     409.320
  H      249.157    -797.133     419.496
  H      252.872    -795.505     414.509
  H      251.978    -799.050     414.520
  H      249.487    -797.934     413.784
  H      248.310    -799.301     419.152
  H      250.512    -796.200     412.409
  H      248.683    -800.123     417.669
  H      252.295    -798.440     411.293
  H      253.946    -796.620     410.974
  H      252.487    -796.279     410.080
  P      249.312    -796.422     410.059
  C      246.905    -796.736     411.023
  O      248.025    -795.880     410.848
  O      248.693    -797.212     408.812
  O      250.297    -795.391     409.631
  H      248.737    -796.658     408.012
  H      246.202    -796.262     411.703
  H      247.213    -797.702     411.432
  H      246.401    -796.893     410.052
  H      256.614    -793.854     412.149
  H      255.253    -794.625     412.927
  H      255.318    -792.883     412.805

 3  4  5  6  7  8  9  10  11  12  23  26  30  31 0
 6-311+G(2d,p)
 ****
 33  35  36  37  38 0
 6-311+G(2d,p)
 ****
 1  2  13  14  15  16  17  18  19  20  21  22  24  25 0
 3-21G
 ****
 27  28  29  32  34  39  40  41  42  43  44  45  46  47  48  49 0
 3-21G
 ****


