%nproc=1
%NoSave
%Mem=1900MB
#P OB98/GEN NMR

erre ene a

0 1
  C     -846.060    -236.064     235.105
  O     -845.482    -237.143     235.840
  P     -843.978    -237.570     235.474
  C     -844.969    -239.102     233.582
  O     -844.097    -238.970     234.714
  C     -844.213    -239.705     232.403
  O     -843.246    -238.743     231.864
  C     -843.391    -240.949     232.748
  O     -844.232    -242.068     232.920
  C     -842.463    -241.015     231.545
  O     -843.117    -241.614     230.429
  C     -842.174    -239.522     231.264
  N     -840.868    -239.081     231.743
  C     -840.093    -238.393     230.801
  O     -840.446    -238.198     229.648
  N     -838.867    -237.970     231.243
  C     -838.353    -238.177     232.500
  O     -837.253    -237.753     232.844
  C     -839.206    -238.947     233.431
  C     -840.401    -239.362     233.012
  O     -843.407    -237.947     236.919
  O     -843.233    -236.501     234.750
  H     -844.063    -238.359     237.492
  H     -842.427    -241.748     229.732
  H     -838.293    -237.465     230.597
  H     -838.812    -239.142     234.408
  H     -841.034    -239.920     233.675
  H     -842.239    -239.323     230.187
  H     -841.564    -241.615     231.747
  H     -842.818    -240.773     233.663
  H     -844.931    -239.926     231.613
  H     -845.357    -238.119     233.311
  H     -845.811    -239.730     233.859
  P     -845.371    -241.969     234.044
  C     -844.169    -243.917     235.307
  O     -845.374    -243.379     234.827
  O     -846.700    -241.998     233.154
  O     -845.246    -240.765     234.916
  H     -846.673    -242.688     232.456
  H     -844.414    -244.659     236.075
  H     -843.532    -243.150     235.758
  H     -843.630    -244.427     234.506
  H     -847.057    -235.890     235.452
  H     -846.083    -236.313     234.065
  H     -845.473    -235.181     235.248

 3  4  5  6  7  8  9  10  11  12  13  24  28  29  30  31  32 0
 6-311+G(2d,p)
 ****
 33  34 0
 6-311+G(2d,p)
 ****
 1  2  14  15  16  17  18  19  20  21  22  23  25  26  27 0
 3-21G
 ****
 35  36  37  38  39  40  41  42  43  44  45 0
 3-21G
 ****


