%nproc=1
%NoSave
%Mem=1900MB
#P OB98/GEN NMR

erre ene a

0 1
  C      454.655     688.107    -205.594
  O      454.938     687.723    -206.927
  H      453.881     687.446    -205.198
  H      454.287     689.138    -205.564
  H      455.556     688.015    -204.979
  P      455.977     688.652    -207.736
  C      457.106     686.618    -208.922
  O      456.307     687.787    -209.050
  C      457.067     685.812    -210.214
  O      455.721     685.353    -210.489
  C      457.489     686.596    -211.460
  O      458.890     686.750    -211.581
  C      456.927     685.681    -212.541
  O      457.761     684.518    -212.669
  C      455.550     685.320    -211.937
  N      454.485     686.242    -212.350
  C      453.773     685.900    -213.507
  O      454.044     684.881    -214.132
  N      452.787     686.754    -213.952
  C      452.514     687.836    -213.287
  N      451.527     688.637    -213.784
  C      453.227     688.227    -212.059
  C      454.186     687.397    -211.649
  O      457.326     688.523    -206.885
  O      455.536     690.054    -207.994
  H      457.308     683.915    -213.288
  H      458.075     688.941    -207.379
  H      452.977     689.148    -211.543
  H      454.753     687.617    -210.750
  H      455.253     684.299    -212.210
  H      456.881     686.152    -213.523
  H      456.978     687.565    -211.520
  H      457.695     684.919    -210.079
  H      451.097     688.371    -214.657
  H      456.712     686.016    -208.086
  H      451.350     689.569    -213.423
  H      458.141     686.896    -208.697
  P      459.447     688.220    -211.919
  C      461.610     688.094    -210.476
  O      461.042     688.161    -211.781
  O      458.991     689.081    -210.653
  O      458.941     688.799    -213.204
  H      458.770     689.996    -210.914
  H      462.677     688.061    -210.553
  H      461.260     687.213    -209.980
  H      461.319     688.958    -209.916

 6  7  8  9  10  11  12  13  14  15  16  26  30  31  32  33  35 0
 6-311+G(2d,p)
 ****
 37  38 0
 6-311+G(2d,p)
 ****
 1  2  3  4  5  17  18  19  20  21  22  23  24  25 0
 3-21G
 ****
 27  28  29  34  36  39  40  41  42  43  44  45  46 0
 3-21G
 ****


