%nproc=1
%NoSave
%Mem=1900MB
#P OB98/GEN NMR

erre ene a

0 1
  C      155.334      95.476      58.021
  O      153.985      95.115      57.803
  P      153.147      94.352      58.934
  C      152.429      94.952      61.320
  O      153.446      95.083      60.334
  C      153.027      94.752      62.712
  O      153.835      93.541      62.711
  C      153.925      95.900      63.197
  O      153.749      95.993      64.613
  C      155.323      95.384      62.889
  O      156.334      96.035      63.650
  C      155.143      93.903      63.207
  N      159.656      91.589      63.854
  C      158.937      92.397      64.662
  N      157.755      92.998      64.405
  C      157.320      92.684      63.173
  C      157.955      91.901      62.227
  C      159.179      91.319      62.614
  N      159.907      90.463      61.819
  N      157.221      91.862      61.055
  C      156.164      92.611      61.297
  N      156.148      93.075      62.584
  O      153.318      92.870      58.959
  O      151.630      94.752      58.633
  H      157.190      95.612      63.451
  H      151.158      93.993      58.235
  H      159.362      92.587      65.644
  H      155.387      92.848      60.582
  H      155.163      93.708      64.287
  H      155.547      95.538      61.826
  H      153.718      96.862      62.714
  H      152.204      94.588      63.417
  H      151.818      94.081      61.062
  H      160.695      90.002      62.241
  H      159.452      90.038      61.009
  H      151.787      95.839      61.308
  P      154.021      97.384      65.363
  C      152.912      99.692      65.331
  O      153.121      98.484      64.624
  O      155.460      97.748      65.541
  O      153.281      97.199      66.774
  H      153.615      97.867      67.407
  H      152.117      99.546      66.069
  H      152.607     100.470      64.626
  H      153.825     100.016      65.841
  H      155.715      95.973      57.153
  H      155.913      94.596      58.211
  H      155.396      96.132      58.864

 3  4  5  6  7  8  9  10  11  12  22  25  29  30  31  32 0
 6-311+G(2d,p)
 ****
 33  36  37 0
 6-311+G(2d,p)
 ****
 1  2  13  14  15  16  17  18  19  20  21  23  24  26 0
 3-21G
 ****
 27  28  34  35  38  39  40  41  42  43  44  45  46  47  48 0
 3-21G
 ****


