%nproc=1
%NoSave
%Mem=1900MB
#P OB98/GEN NMR

erre ene a

0 1
  C      -80.502    -886.945      59.028
  O      -81.496    -885.936      58.997
  H      -80.417    -887.389      58.033
  H      -80.793    -887.722      59.743
  H      -79.525    -886.534      59.317
  P      -81.520    -884.841      60.158
  C      -81.063    -884.980      62.700
  O      -81.641    -885.615      61.565
  C      -80.210    -885.952      63.520
  O      -79.096    -886.421      62.739
  C      -79.614    -885.281      64.762
  O      -80.456    -885.239      65.897
  C      -78.393    -886.167      65.033
  O      -78.758    -887.319      65.814
  C      -77.963    -886.595      63.624
  N      -72.882    -886.077      63.474
  C      -73.639    -886.977      64.182
  N      -72.959    -887.818      65.009
  N      -74.947    -887.040      64.117
  C      -75.486    -886.097      63.321
  C      -74.843    -885.136      62.572
  C      -73.397    -885.107      62.621
  O      -72.667    -884.320      62.013
  N      -75.728    -884.331      61.889
  C      -76.909    -884.758      62.287
  N      -76.821    -885.837      63.127
  O      -82.971    -884.173      60.012
  O      -80.440    -883.802      60.087
  H      -77.973    -887.895      65.891
  H      -82.952    -883.260      60.360
  H      -71.874    -886.096      63.546
  H      -77.863    -884.342      61.964
  H      -77.690    -887.654      63.590
  H      -77.627    -885.633      65.596
  H      -71.972    -887.725      65.191
  H      -79.256    -884.271      64.524
  H      -73.493    -888.292      65.734
  H      -80.814    -886.826      63.786
  H      -81.887    -884.599      63.301
  H      -80.458    -884.115      62.383
  P      -80.515    -883.916      66.802
  C      -79.005    -882.936      68.679
  O      -79.379    -884.061      67.917
  O      -81.891    -884.110      67.611
  O      -80.503    -882.635      66.041
  H      -82.610    -883.627      67.182
  H      -78.238    -883.213      69.372
  H      -79.855    -882.570      69.216
  H      -78.638    -882.170      68.028

 6  7  8  9  10  11  12  13  14  15  26  29  33  34 0
 6-311+G(2d,p)
 ****
 36  38  39  40  41 0
 6-311+G(2d,p)
 ****
 1  2  3  4  5  16  17  18  19  20  21  22  23  24  25 0
 3-21G
 ****
 27  28  30  31  32  35  37  42  43  44  45  46  47 0
 3-21G
 ****
 48  49 0
 3-21G
 ****


