%nproc=1
%NoSave
%Mem=1900MB
#P OB98/GEN NMR

erre ene a

0 1
  C      -62.983      65.993      99.629
  O      -62.160      65.161      98.836
  H      -62.679      65.886     100.674
  H      -64.026      65.684      99.536
  H      -62.873      67.041      99.338
  P      -62.295      65.230      97.242
  C      -61.220      67.430      96.428
  O      -61.027      66.048      96.691
  C      -59.885      68.115      96.119
  O      -59.020      67.990      97.276
  C      -59.150      67.516      94.917
  O      -58.503      68.563      94.193
  C      -58.112      66.612      95.554
  O      -56.976      66.417      94.714
  C      -57.796      67.361      96.847
  N      -53.784      66.234      99.704
  C      -53.981      67.272      98.816
  N      -52.952      68.130      98.648
  N      -55.090      67.454      98.148
  C      -56.043      66.532      98.431
  C      -55.970      65.459      99.288
  C      -54.729      65.258     100.006
  O      -54.490      64.347     100.792
  N      -57.141      64.742      99.289
  C      -57.917      65.379      98.434
  N      -57.294      66.465      97.878
  O      -63.617      65.719      96.741
  O      -62.001      63.736      96.756
  H      -56.467      67.257      94.723
  H      -62.823      63.287      96.487
  H      -52.906      66.133     100.183
  H      -58.930      65.097      98.179
  H      -57.036      68.140      96.705
  H      -58.554      65.631      95.765
  H      -52.079      68.064      99.148
  H      -59.820      66.971      94.252
  H      -53.081      68.918      98.026
  H      -60.070      69.186      95.972
  H      -61.671      67.888      97.314
  H      -61.907      67.545      95.582
  P      -58.405      68.460      92.595
  C      -60.855      68.738      91.872
  O      -59.575      69.349      91.946
  O      -58.289      67.077      92.048
  O      -57.090      69.318      92.265
  H      -56.633      68.914      91.501
  H      -61.550      69.418      91.425
  H      -61.187      68.485      92.857
  H      -60.793      67.850      91.278

 6  7  8  9  10  11  12  13  14  15  26  29  33  34 0
 6-311+G(2d,p)
 ****
 36  38  39  40  41 0
 6-311+G(2d,p)
 ****
 1  2  3  4  5  16  17  18  19  20  21  22  23  24  25 0
 3-21G
 ****
 27  28  30  31  32  35  37  42  43  44  45  46  47 0
 3-21G
 ****
 48  49 0
 3-21G
 ****


