%nproc=1
%NoSave
%Mem=1900MB
#P OB98/GEN NMR

erre ene a

0 1
  C     -790.209    1121.059    -352.512
  O     -791.587    1121.165    -352.261
  H     -789.698    1121.905    -352.043
  H     -790.023    1121.089    -353.588
  H     -789.793    1120.131    -352.099
  P     -792.511    1119.872    -352.434
  C     -793.441    1119.428    -350.068
  O     -792.477    1119.062    -351.044
  C     -794.082    1118.201    -349.412
  O     -794.784    1117.417    -350.411
  C     -793.056    1117.266    -348.787
  O     -792.644    1117.613    -347.477
  C     -793.793    1115.938    -348.795
  O     -794.628    1115.808    -347.626
  C     -794.649    1116.030    -350.055
  N     -793.370    1111.465    -351.969
  C     -793.847    1111.779    -350.712
  N     -793.937    1110.754    -349.841
  N     -794.179    1112.987    -350.347
  C     -793.952    1113.931    -351.296
  C     -793.467    1113.748    -352.572
  C     -793.149    1112.388    -352.986
  O     -792.715    1112.066    -354.087
  N     -793.365    1114.932    -353.248
  C     -793.716    1115.837    -352.363
  N     -794.100    1115.271    -351.168
  O     -791.650    1118.923    -353.402
  O     -793.877    1120.119    -352.997
  H     -795.380    1116.428    -347.716
  H     -792.242    1118.327    -353.897
  H     -793.157    1110.511    -352.211
  H     -793.726    1116.913    -352.532
  H     -795.668    1115.642    -349.878
  H     -793.105    1115.083    -348.783
  H     -793.579    1109.831    -350.037
  H     -792.179    1117.173    -349.436
  H     -794.022    1110.983    -348.844
  H     -794.831    1118.531    -348.679
  H     -794.205    1120.022    -350.579
  H     -792.987    1120.071    -349.309
  P     -791.547    1116.719    -346.712
  C     -789.518    1117.739    -347.986
  O     -790.283    1116.588    -347.696
  O     -792.209    1115.259    -346.750
  O     -791.240    1117.157    -345.327
  H     -792.676    1115.083    -345.914
  H     -788.721    1117.479    -348.651
  H     -789.111    1118.135    -347.079
  H     -790.142    1118.475    -348.448

 6  7  8  9  10  11  12  13  14  15  26  29  33  34 0
 6-311+G(2d,p)
 ****
 36  38  39  40  41 0
 6-311+G(2d,p)
 ****
 1  2  3  4  5  16  17  18  19  20  21  22  23  24  25 0
 3-21G
 ****
 27  28  30  31  32  35  37  42  43  44  45  46  47 0
 3-21G
 ****
 48  49 0
 3-21G
 ****


