%nproc=1
%NoSave
%Mem=1900MB
#P OB98/GEN NMR

erre ene a

0 1
  C     -906.026    -362.220     203.381
  O     -905.546    -363.204     204.276
  H     -906.932    -362.603     202.901
  H     -905.279    -362.014     202.608
  H     -906.268    -361.303     203.918
  P     -904.218    -362.833     205.107
  C     -904.444    -364.392     207.177
  O     -903.815    -364.148     205.924
  C     -903.981    -365.741     207.726
  O     -904.667    -366.815     207.046
  C     -902.499    -366.017     207.524
  O     -901.684    -365.341     208.464
  C     -902.460    -367.533     207.674
  O     -902.409    -367.923     209.047
  C     -903.796    -367.962     207.048
  N     -901.499    -371.544     204.224
  C     -901.537    -371.332     205.563
  N     -902.185    -370.367     206.239
  C     -902.867    -369.578     205.395
  C     -902.925    -369.657     204.012
  C     -902.196    -370.705     203.417
  N     -902.129    -370.911     202.058
  N     -903.697    -368.638     203.493
  C     -904.102    -367.942     204.536
  N     -903.635    -368.474     205.702
  O     -904.760    -361.838     206.233
  O     -903.125    -362.218     204.297
  H     -903.030    -367.328     209.526
  H     -904.585    -360.914     205.975
  H     -900.981    -372.044     206.160
  H     -904.728    -367.063     204.490
  H     -904.296    -368.747     207.638
  H     -901.590    -367.956     207.170
  H     -902.206    -365.760     206.497
  H     -904.248    -365.789     208.795
  H     -905.527    -364.405     207.040
  H     -904.180    -363.583     207.864
  H     -901.542    -371.632     201.702
  H     -902.557    -370.218     201.444
  P     -900.101    -365.489     208.305
  C     -899.492    -363.028     208.960
  O     -899.422    -364.416     209.292
  O     -899.787    -364.908     206.851
  O     -899.586    -366.879     208.479
  H     -899.059    -365.417     206.446
  H     -898.995    -362.455     209.715
  H     -900.517    -362.727     208.901
  H     -899.016    -362.863     208.016

 6  7  8  9  10  11  12  13  14  15  25  28  32  33  34  35 0
 6-311+G(2d,p)
 ****
 36  37  40 0
 6-311+G(2d,p)
 ****
 1  2  3  4  5  16  17  18  19  20  21  22  23  24 0
 3-21G
 ****
 26  27  29  30  31  38  39 41  42  43  44  45  46  47  48 0
 3-21G
 ****


