%nproc=1
%NoSave
%Mem=1900MB
#P OB98/GEN NMR

erre ene a

0 1
  C     -340.460    -276.109    -421.807
  O     -339.547    -277.131    -421.463
  H     -341.244    -276.536    -422.437
  H     -339.950    -275.316    -422.360
  H     -340.918    -275.696    -420.903
  P     -338.276    -276.702    -420.578
  C     -337.934    -279.113    -419.671
  O     -337.380    -278.019    -420.394
  C     -337.165    -280.389    -420.006
  O     -337.604    -280.904    -421.279
  C     -335.662    -280.193    -420.141
  O     -335.015    -280.115    -418.881
  C     -335.278    -281.435    -420.924
  O     -335.098    -282.570    -420.059
  C     -336.499    -281.634    -421.851
  N     -336.217    -281.223    -423.223
  C     -336.044    -282.257    -424.143
  O     -336.124    -283.449    -423.835
  N     -335.749    -281.877    -425.419
  C     -335.568    -280.599    -425.854
  O     -335.229    -280.326    -426.999
  C     -335.772    -279.545    -424.844
  C     -336.077    -279.901    -423.595
  O     -338.913    -276.461    -419.126
  O     -337.537    -275.505    -421.073
  H     -339.004    -275.508    -418.960
  H     -335.046    -283.354    -420.638
  H     -335.609    -282.610    -426.094
  H     -335.642    -278.518    -425.159
  H     -336.209    -279.144    -422.828
  H     -336.797    -282.690    -421.868
  H     -334.341    -281.301    -421.465
  H     -335.447    -279.310    -420.753
  H     -337.389    -281.141    -419.237
  H     -338.981    -279.241    -419.954
  H     -337.881    -278.895    -418.597
  P     -333.832    -279.049    -418.699
  C     -334.490    -278.697    -416.172
  O     -333.489    -279.014    -417.124
  O     -334.601    -277.674    -418.955
  O     -332.652    -279.290    -419.585
  H     -335.513    -277.681    -418.622
  H     -334.069    -278.726    -415.189
  H     -335.286    -279.409    -416.240
  H     -334.871    -277.717    -416.368

 6  7  8  9  10  11  12  13  14  15  16  27  31  32  33  34  35 0
 6-311+G(2d,p)
 ****
 36  37 0
 6-311+G(2d,p)
 ****
 1  2  3  4  5  17  18  19  20  21  22  23  24  25 0
 3-21G
 ****
 26  28  29  30  38  39  40  41  42  43  44  45 0
 3-21G
 ****


