%nproc=1
%NoSave
%Mem=1900MB
#P OB98/GEN NMR

erre ene a

0 1
  C     -350.507      56.418    -536.124
  O     -351.359      56.301    -537.247
  H     -349.654      55.748    -536.259
  H     -351.038      56.127    -535.210
  H     -350.138      57.442    -536.035
  P     -352.698      57.184    -537.226
  C     -353.874      54.879    -537.258
  O     -353.828      56.179    -536.687
  C     -355.098      54.113    -536.747
  O     -355.025      53.959    -535.323
  C     -356.426      54.796    -537.041
  O     -356.863      54.494    -538.358
  C     -357.321      54.140    -536.000
  O     -357.743      52.843    -536.469
  C     -356.376      53.973    -534.796
  N     -357.036      54.970    -529.801
  C     -357.172      53.827    -530.512
  N     -357.035      53.648    -531.845
  C     -356.716      54.803    -532.452
  C     -356.547      56.045    -531.856
  C     -356.717      56.107    -530.466
  N     -356.579      57.271    -529.739
  N     -356.228      57.001    -532.794
  C     -356.141      56.336    -533.927
  N     -356.467      55.010    -533.783
  O     -353.010      57.912    -538.489
  O     -352.428      58.117    -535.950
  H     -358.239      52.428    -535.735
  H     -352.018      57.601    -535.232
  H     -357.427      52.943    -529.940
  H     -355.836      56.764    -534.883
  H     -356.544      53.021    -534.278
  H     -358.228      54.713    -535.798
  H     -356.386      55.871    -536.852
  H     -355.071      53.107    -537.193
  H     -352.964      54.321    -537.009
  H     -356.906      57.263    -528.785
  H     -356.468      58.136    -530.251
  H     -353.922      54.991    -538.345
  P     -357.889      55.452    -539.130
  C     -359.686      53.698    -539.697
  O     -359.332      54.810    -538.874
  O     -357.541      55.713    -540.557
  O     -357.926      56.786    -538.248
  H     -358.313      57.522    -538.762
  H     -360.666      53.358    -539.434
  H     -358.982      52.906    -539.549
  H     -359.676      53.997    -540.724

 6  7  8  9  10  11  12  13  14  15  25  28  32  33  34  35 0
 6-311+G(2d,p)
 ****
 36  39  40 0
 6-311+G(2d,p)
 ****
 1  2  3  4  5  16  17  18  19  20  21  22  23  24 0
 3-21G
 ****
 26  27  29  30  31  37  38  41  42  43  44  45  46  47 0
 3-21G
 ****
 48 0
 3-21G
 ****


