%nproc=1
%NoSave
%Mem=1900MB
#P OB98/GEN NMR

erre ene a

0 1
  C     -669.327     457.647     250.971
  O     -669.079     456.474     251.762
  P     -669.029     456.679     253.355
  C     -666.442     456.851     253.578
  O     -667.697     457.507     253.707
  C     -665.377     457.594     254.371
  O     -665.110     458.915     253.820
  C     -665.763     457.844     255.822
  O     -665.654     456.643     256.590
  C     -664.780     458.931     256.214
  O     -663.480     458.373     256.509
  C     -664.701     459.773     254.919
  N     -665.687     464.136     257.409
  C     -664.771     463.149     257.619
  N     -664.578     462.018     256.921
  C     -665.430     461.949     255.888
  C     -666.407     462.879     255.530
  C     -666.531     464.009     256.352
  N     -667.471     464.998     256.142
  N     -667.091     462.466     254.411
  C     -666.559     461.299     254.093
  N     -665.546     460.951     254.944
  O     -668.722     455.208     253.904
  O     -670.290     457.234     253.924
  H     -663.200     457.861     255.722
  H     -669.513     454.840     254.344
  H     -664.126     463.293     258.493
  H     -666.861     460.667     253.261
  H     -663.669     460.104     254.704
  H     -665.095     459.501     257.095
  H     -666.793     458.233     255.883
  H     -664.432     457.007     254.328
  H     -666.147     456.817     252.513
  H     -667.530     465.742     256.830
  H     -668.165     464.867     255.414
  H     -666.538     455.814     253.914
  P     -666.992     455.775     256.806
  C     -667.597     457.517     258.597
  O     -668.043     456.832     257.448
  O     -666.589     454.881     258.056
  O     -667.474     455.048     255.597
  H     -666.161     455.404     258.757
  H     -668.379     458.226     258.913
  H     -666.676     458.070     258.389
  H     -667.416     456.813     259.413
  H     -669.337     457.383     249.934
  H     -668.555     458.367     251.148
  H     -670.274     458.066     251.241

 3  4  5  6  7  8  9  10  11  12  22  25  29  30  31  32 0
 6-311+G(2d,p)
 ****
 33  36  37 0
 6-311+G(2d,p)
 ****
 1  2  13  14  15  16  17  18  19  20  21  23  24  26 0
 3-21G
 ****
 27  28  34  35  38  39  40  41  42  43  44  45  46  47  48 0
 3-21G
 ****


