%nproc=1
%NoSave
%Mem=1900MB
#P OB98/GEN NMR

erre ene a

0 1
  C     -286.230      74.946     -72.266
  O     -286.515      73.918     -71.314
  P     -286.978      72.477     -71.850
  C     -289.515      72.711     -71.442
  O     -288.312      72.057     -71.055
  C     -290.730      72.029     -70.821
  O     -290.871      70.666     -71.280
  C     -290.659      71.936     -69.302
  O     -290.910      73.199     -68.705
  C     -291.700      70.860     -69.015
  O     -293.025      71.419     -68.996
  C     -291.531      69.922     -70.238
  N     -290.822      68.692     -69.921
  C     -291.619      67.584     -69.624
  O     -292.847      67.683     -69.602
  N     -291.000      66.388     -69.349
  C     -289.702      66.309     -69.354
  N     -289.147      65.095     -69.076
  C     -288.824      67.462     -69.648
  C     -289.447      68.608     -69.907
  O     -285.907      71.433     -71.897
  O     -287.532      72.805     -73.318
  H     -293.116      71.913     -69.838
  H     -287.394      72.024     -73.886
  H     -287.749      67.348     -69.649
  H     -288.878      69.512     -70.135
  H     -292.522      69.644     -70.636
  H     -291.534      70.385     -68.044
  H     -289.663      71.577     -69.006
  H     -291.630      72.591     -71.120
  H     -289.766      64.331     -68.869
  H     -289.598      72.701     -72.537
  H     -288.149      64.924     -69.104
  H     -289.456      73.764     -71.146
  P     -289.700      74.251     -68.661
  C     -288.855      73.383     -66.359
  O     -289.321      74.484     -67.119
  O     -290.408      75.632     -69.075
  O     -288.558      73.934     -69.573
  H     -289.778      76.177     -69.577
  H     -288.347      73.756     -65.468
  H     -288.152      72.774     -66.938
  H     -289.708      72.767     -66.058
  H     -285.937      75.837     -71.752
  H     -287.104      75.143     -72.851
  H     -285.435      74.627     -72.908

 3  4  5  6  7  8  9  10  11  12  13  23  27  28  29  30  32 0
 6-311+G(2d,p)
 ****
 34  35 0
 6-311+G(2d,p)
 ****
 1  2  14  15  16  17  18  19  20  21  22  24  25  26 0
 3-21G
 ****
 31  33  36  37  38  39  40  41  42  43  44  45  46 0
 3-21G
 ****


