%nproc=1
%NoSave
%Mem=1900MB
#P OB98/GEN NMR

erre ene a

0 1
  C      -39.046     224.897    -279.739
  O      -40.201     224.484    -279.036
  H      -39.144     225.960    -279.984
  H      -38.952     224.331    -280.668
  H      -38.148     224.763    -279.128
  P      -40.207     223.049    -278.323
  C      -42.030     223.841    -276.672
  O      -41.653     222.872    -277.645
  C      -43.554     224.004    -276.634
  O      -43.962     224.809    -277.791
  C      -44.332     222.675    -276.700
  O      -45.539     222.847    -275.948
  C      -44.626     222.583    -278.191
  O      -45.604     221.618    -278.471
  C      -44.975     224.047    -278.477
  N      -45.007     224.371    -279.899
  C      -46.241     224.302    -280.544
  O      -47.294     224.005    -279.980
  N      -46.227     224.575    -281.885
  C      -45.127     224.897    -282.628
  O      -45.177     225.155    -283.823
  C      -43.849     224.927    -281.896
  C      -43.846     224.664    -280.587
  O      -39.051     222.769    -277.421
  O      -40.259     222.017    -279.550
  H      -39.358     221.693    -279.742
  H      -46.324     221.650    -277.802
  H      -47.114     224.529    -282.368
  H      -42.955     225.159    -282.463
  H      -42.921     224.678    -280.018
  H      -45.938     224.312    -278.027
  H      -43.723     222.289    -278.738
  H      -43.768     221.828    -276.302
  H      -43.826     224.578    -275.740
  H      -41.553     224.792    -276.938
  H      -41.663     223.521    -275.689
  P      -45.866     222.038    -274.597
  C      -45.868     224.019    -272.945
  O      -46.638     223.001    -273.567
  O      -44.666     221.370    -273.997
  O      -46.965     220.947    -275.007
  H      -46.814     220.126    -274.498
  H      -46.492     224.587    -272.288
  H      -45.458     224.664    -273.694
  H      -45.073     223.573    -272.385

 6  7  8  9  10  11  12  13  14  15  16  27  31  32  33  34  35 0
 6-311+G(2d,p)
 ****
 36  37 0
 6-311+G(2d,p)
 ****
 1  2  3  4  5  17  18  19  20  21  22  23  24  25 0
 3-21G
 ****
 26  28  29  30  38  39  40  41  42  43  44  45 0
 3-21G
 ****


