%nproc=1
%NoSave
%Mem=1900MB
#P OB98/GEN NMR

erre ene a

0 1
  C     -197.211      -1.625     -38.216
  O     -197.502      -2.140     -36.933
  H     -198.128      -1.532     -38.802
  H     -196.764      -0.633     -38.105
  H     -196.502      -2.276     -38.734
  P     -198.205      -3.580     -36.874
  C     -196.056      -4.661     -35.906
  O     -197.032      -4.678     -36.940
  C     -196.044      -6.004     -35.181
  O     -197.396      -6.303     -34.748
  C     -195.542      -7.187     -36.030
  O     -194.422      -7.810     -35.397
  C     -196.703      -8.169     -36.031
  O     -196.289      -9.529     -35.902
  C     -197.547      -7.724     -34.843
  N     -200.987     -11.405     -34.073
  C     -199.802     -11.149     -33.477
  N     -198.983     -10.093     -33.651
  C     -199.510      -9.227     -34.536
  C     -200.713      -9.338     -35.207
  C     -201.464     -10.500     -34.961
  N     -202.644     -10.786     -35.612
  N     -200.911      -8.254     -36.043
  C     -199.823      -7.523     -35.908
  N     -198.938      -8.080     -35.022
  O     -198.912      -3.703     -38.307
  O     -199.179      -3.763     -35.760
  H     -195.828      -9.602     -35.045
  H     -199.833      -4.001     -38.194
  H     -199.464     -11.898     -32.766
  H     -199.603      -6.614     -36.455
  H     -197.198      -8.165     -33.900
  H     -197.256      -8.066     -36.971
  H     -195.277      -6.891     -37.052
  H     -195.431      -5.902     -34.278
  H     -196.298      -3.871     -35.186
  H     -203.054     -11.694     -35.463
  H     -202.947     -10.172     -36.353
  H     -195.077      -4.447     -36.344
  P     -193.203      -8.243     -36.355
  C     -191.249      -7.003     -35.161
  O     -192.107      -7.071     -36.293
  O     -193.827      -8.087     -37.821
  O     -192.698      -9.625     -36.104
  H     -193.374      -8.689     -38.442
  H     -190.581      -6.174     -35.269
  H     -190.684      -7.909     -35.086
  H     -191.836      -6.875     -34.276

 6  7  8  9  10  11  12  13  14  15  25  28  32  33  34  35 0
 6-311+G(2d,p)
 ****
 36  39  40 0
 6-311+G(2d,p)
 ****
 1  2  3  4  5  16  17  18  19  20  21  22  23  24 0
 3-21G
 ****
 26  27  29  30  31  37  38  41  42  43  44  45  46  47  48 0
 3-21G
 ****


