%nproc=1
%NoSave
%Mem=1900MB
#P OB98/GEN NMR

erre ene a

0 1
  C     -254.438    -181.068    -157.520
  O     -254.538    -181.736    -158.763
  P     -255.572    -181.228    -159.878
  C     -253.880    -182.257    -161.532
  O     -255.253    -182.112    -161.182
  C     -253.683    -183.429    -162.493
  O     -254.790    -183.522    -163.410
  C     -252.434    -183.320    -163.358
  O     -251.278    -183.656    -162.611
  C     -252.771    -184.294    -164.478
  O     -252.480    -185.650    -164.100
  C     -254.293    -184.089    -164.642
  N     -254.620    -183.254    -165.792
  C     -254.916    -183.938    -166.977
  O     -254.859    -185.168    -167.018
  N     -255.221    -183.208    -168.101
  C     -255.210    -181.911    -168.047
  N     -255.507    -181.245    -169.195
  C     -254.872    -181.153    -166.826
  C     -254.588    -181.882    -165.747
  O     -255.604    -179.753    -160.096
  O     -256.970    -181.829    -159.376
  H     -252.681    -186.200    -164.882
  H     -257.318    -181.327    -158.599
  H     -254.863    -180.073    -166.834
  H     -254.327    -181.406    -164.811
  H     -254.800    -185.054    -164.764
  H     -252.196    -184.087    -165.389
  H     -252.352    -182.306    -163.766
  H     -253.654    -184.352    -161.900
  H     -255.703    -181.801    -170.019
  H     -253.310    -182.440    -160.618
  H     -255.493    -180.238    -169.273
  H     -253.520    -181.325    -161.979
  P     -250.114    -182.577    -162.416
  C     -249.709    -183.681    -160.138
  O     -249.114    -183.132    -161.295
  O     -250.573    -181.168    -162.219
  O     -249.253    -182.707    -163.763
  H     -249.040    -181.814    -164.090
  H     -248.972    -184.309    -159.627
  H     -250.579    -184.293    -160.394
  H     -250.016    -182.877    -159.467
  H     -253.700    -181.551    -156.914
  H     -255.384    -181.099    -157.021
  H     -254.154    -180.049    -157.684

 3  4  5  6  7  8  9  10  11  12  13  23  27  28  29  30  32 0
 6-311+G(2d,p)
 ****
 34  35 0
 6-311+G(2d,p)
 ****
 1  2  14  15  16  17  18  19  20  21  22  24  25  26 0
 3-21G
 ****
 31  33  36  37  38  39  40  41  42  43  44  45  46 0
 3-21G
 ****


