%nproc=1
%NoSave
%Mem=1900MB
#P OB98/GEN NMR

erre ene a

0 1
  C      177.854     -19.505     431.486
  O      177.414     -19.147     430.186
  P      176.127     -18.211     429.978
  C      173.593     -18.527     430.279
  O      174.878     -19.128     430.392
  C      172.573     -19.554     429.799
  O      172.392     -20.541     430.844
  C      171.171     -19.020     429.508
  O      171.010     -18.463     428.214
  C      170.353     -20.300     429.613
  O      170.494     -21.068     428.401
  C      171.029     -21.022     430.780
  N      168.906     -23.193     434.900
  C      169.517     -23.721     433.811
  N      170.039     -23.076     432.751
  C      169.923     -21.744     432.900
  C      169.335     -21.065     433.952
  C      168.805     -21.849     434.990
  N      168.203     -21.311     436.109
  N      169.389     -19.698     433.740
  C      170.014     -19.565     432.591
  N      170.364     -20.770     432.049
  O      176.044     -17.566     428.638
  O      176.208     -17.153     431.173
  H      170.019     -20.582     427.701
  H      175.628     -16.389     430.982
  H      169.591     -24.804     433.794
  H      170.230     -18.620     432.114
  H      171.073     -22.110     430.637
  H      169.283     -20.109     429.748
  H      170.841     -18.320     430.285
  H      172.984     -20.067     428.922
  H      173.660     -17.715     429.545
  H      167.976     -21.941     436.859
  H      168.275     -20.309     436.251
  H      173.300     -18.099     431.241
  P      169.903     -17.309     428.045
  C      167.301     -17.321     428.325
  O      168.538     -17.935     428.613
  O      169.820     -16.725     426.678
  O      170.322     -16.249     429.168
  H      170.211     -16.554     430.086
  H      166.496     -17.980     428.659
  H      167.187     -17.153     427.247
  H      167.219     -16.368     428.857
  H      178.720     -20.128     431.410
  H      177.075     -20.036     431.992
  H      178.098     -18.620     432.036

 3  4  5  6  7  8  9  10  11  12  22  25  29  30  31  32 0
 6-311+G(2d,p)
 ****
 33  36  37 0
 6-311+G(2d,p)
 ****
 1  2  13  14  15  16  17  18  19  20  21  23  24  26 0
 3-21G
 ****
 27  28  34  35  38  39  40  41  42  43  44  45  46  47  48 0
 3-21G
 ****


