%nproc=1
%NoSave
%Mem=1900MB
#P OB98/GEN NMR

erre ene a

0 1
  C     -891.550    -480.327     569.111
  O     -892.780    -479.794     569.566
  H     -891.470    -481.374     569.418
  H     -890.710    -479.779     569.551
  H     -891.490    -480.272     568.015
  P     -893.060    -478.254     569.231
  C     -895.460    -478.761     568.416
  O     -894.650    -478.056     569.341
  C     -896.710    -479.322     569.118
  O     -896.380    -480.495     569.889
  C     -897.380    -478.335     570.073
  O     -898.240    -477.441     569.382
  C     -898.140    -479.275     571.002
  O     -899.380    -479.706     570.397
  C     -897.170    -480.467     571.127
  N     -896.940    -480.662     576.159
  C     -897.990    -480.851     575.309
  N     -899.210    -481.082     575.895
  N     -897.920    -480.817     574.007
  C     -896.660    -480.538     573.570
  C     -895.520    -480.345     574.323
  C     -895.630    -480.415     575.768
  O     -894.710    -480.315     576.581
  N     -894.430    -480.116     573.519
  C     -894.910    -480.138     572.290
  N     -896.270    -480.371     572.282
  O     -892.780    -478.147     567.657
  O     -892.220    -477.273     569.992
  H     -899.820    -478.941     569.978
  H     -892.450    -477.259     567.446
  H     -897.070    -480.719     577.167
  H     -894.340    -479.983     571.386
  H     -897.690    -481.434     571.196
  H     -898.400    -478.814     571.950
  H     -899.410    -480.795     576.854
  H     -896.610    -477.786     570.661
  H     -900.000    -481.211     575.280
  H     -897.420    -479.628     568.333
  H     -894.890    -479.604     567.996
  H     -895.760    -478.086     567.607
  P     -898.990    -476.307     570.253
  C     -898.900    -474.595     568.297
  O     -899.720    -475.340     569.203
  O     -897.790    -475.409     570.817
  O     -899.870    -476.845     571.345
  H     -898.120    -474.867     571.581
  H     -899.521    -473.999     567.662
  H     -898.323    -475.270     567.700
  H     -898.242    -473.959     568.852

 6  7  8  9  10  11  12  13  14  15  26  29  33  34 0
 6-311+G(2d,p)
 ****
 36  38  39  40  41 0
 6-311+G(2d,p)
 ****
 1  2  3  4  5  16  17  18  19  20  21  22  23  24  25 0
 3-21G
 ****
 27  28  30  31  32  35  37  42  43  44  45  46  47 0
 3-21G
 ****
 48  49 0
 3-21G
 ****


