%nproc=1
%NoSave
%Mem=1900MB
#P OB98/GEN NMR

erre ene a

0 1
  C        6.508     -18.804    -112.781
  O        5.514     -19.814    -112.748
  P        4.062     -19.517    -112.151
  C        1.781     -20.812    -112.035
  O        3.111     -20.749    -112.500
  C        1.399     -22.282    -111.818
  O        1.501     -23.010    -113.058
  C        2.315     -22.955    -110.799
  O        1.738     -22.913    -109.503
  C        2.453     -24.359    -111.354
  O        1.314     -25.160    -110.988
  C        2.453     -24.093    -112.879
  N        3.723     -23.694    -113.514
  C        4.912     -24.298    -113.116
  O        4.977     -25.185    -112.270
  N        6.051     -23.822    -113.716
  C        6.101     -22.859    -114.682
  O        7.122     -22.279    -115.030
  C        4.807     -22.463    -115.247
  C        3.697     -22.872    -114.633
  O        3.515     -18.349    -113.098
  O        4.026     -19.132    -110.709
  H        1.463     -26.053    -111.348
  H        3.630     -17.479    -112.673
  H        6.928     -24.157    -113.331
  H        4.802     -21.808    -116.108
  H        2.726     -22.560    -115.010
  H        2.076     -24.962    -113.428
  H        3.324     -24.864    -110.940
  H        3.303     -22.478    -110.803
  H        0.355     -22.331    -111.483
  H        1.107     -20.345    -112.761
  H        1.684     -20.254    -111.098
  P        2.654     -23.192    -108.221
  C        2.605     -22.147    -105.881
  O        2.442     -21.920    -107.267
  O        4.074     -23.549    -108.509
  O        1.882     -24.379    -107.471
  H        2.293     -25.238    -107.700
  H        2.614     -21.184    -105.367
  H        3.547     -22.666    -105.685
  H        1.768     -22.741    -105.505
  H        7.403     -19.199    -113.215
  H        6.711     -18.471    -111.785
  H        6.160     -17.980    -113.369

 3  4  5  6  7  8  9  10  11  12  13  23  28  29  30  31  32 0
 6-311+G(2d,p)
 ****
 33  34 0
 6-311+G(2d,p)
 ****
 1  2  14  15  16  17  18  19  20  21  22  24  25  26  27 0
 3-21G
 ****
 35  36  37  38  39  40  41  42  43  44  45 0
 3-21G
 ****


