%nproc=1
%NoSave
%Mem=1900MB
#P OB98/GEN NMR

erre ene a

0 1
  C      -39.522     338.115     733.118
  O      -38.668     337.613     732.111
  H      -40.559     337.946     732.810
  H      -39.359     339.190     733.233
  H      -39.354     337.615     734.072
  P      -37.119     337.401     732.458
  C      -35.110     338.980     732.867
  O      -36.399     338.835     732.294
  C      -34.665     340.440     732.875
  O      -34.227     340.821     731.548
  C      -35.850     341.365     733.222
  O      -35.430     342.566     733.856
  C      -36.425     341.702     731.857
  O      -37.212     342.889     731.862
  C      -35.159     341.781     731.009
  N      -36.471     343.674     726.460
  C      -36.493     344.291     727.703
  N      -36.941     345.569     727.744
  N      -36.117     343.697     728.805
  C      -35.766     342.401     728.630
  C      -35.733     341.676     727.459
  C      -36.108     342.362     726.232
  O      -36.121     341.871     725.110
  N      -35.335     340.376     727.673
  C      -35.135     340.308     728.981
  N      -35.372     341.515     729.602
  O      -36.553     336.593     731.189
  O      -36.824     336.689     733.744
  H      -36.646     343.615     732.187
  H      -35.759     336.078     731.439
  H      -36.753     344.190     725.643
  H      -34.823     339.425     729.515
  H      -34.704     342.783     731.086
  H      -37.090     340.875     731.549
  H      -37.391     346.002     726.952
  H      -36.585     340.860     733.853
  H      -37.234     345.926     728.659
  H      -33.816     340.587     733.544
  H      -34.420     338.379     732.269
  H      -35.101     338.566     733.883
  P      -36.056     342.907     735.302
  C      -38.015     344.422     736.190
  O      -37.288     343.902     735.078
  O      -34.939     343.803     736.003
  O      -36.385     341.684     736.104
  H      -34.463     343.298     736.669
  H      -38.795     345.064     735.837
  H      -37.353     344.979     736.820
  H      -38.442     343.614     736.746

 6  7  8  9  10  11  12  13  14  15  26  29  33  34 0
 6-311+G(2d,p)
 ****
 36  38  39  40  41 0
 6-311+G(2d,p)
 ****
 1  2  3  4  5  16  17  18  19  20  21  22  23  24  25 0
 3-21G
 ****
 27  28  30  31  32  35  37  42  43  44  45  46  47 0
 3-21G
 ****
 48  49 0
 3-21G
 ****


