%nproc=1
%NoSave
%Mem=1900MB
#P OB98/GEN NMR

erre ene a

0 1
  C     -301.844     222.603     -32.995
  O     -301.812     223.863     -33.637
  H     -302.886     222.316     -32.837
  H     -301.344     222.663     -32.024
  H     -301.360     221.850     -33.621
  P     -300.361     224.454     -33.982
  C     -300.785     223.903     -36.475
  O     -299.947     223.714     -35.343
  C     -299.960     223.888     -37.760
  O     -299.181     225.091     -37.875
  C     -298.963     222.739     -37.851
  O     -299.604     221.544     -38.266
  C     -298.015     223.268     -38.914
  O     -298.590     223.071     -40.221
  C     -297.958     224.774     -38.592
  N     -293.805     227.784     -38.406
  C     -294.643     227.474     -39.417
  N     -295.699     226.633     -39.405
  C     -295.859     226.083     -38.191
  C     -295.081     226.304     -37.064
  C     -294.015     227.208     -37.199
  N     -293.166     227.529     -36.161
  N     -295.544     225.562     -35.998
  C     -296.614     224.946     -36.459
  N     -296.826     225.201     -37.791
  O     -299.366     224.410     -32.875
  O     -300.744     225.922     -34.495
  H     -299.367     223.656     -40.291
  H     -301.561     225.898     -35.022
  H     -294.441     227.969     -40.363
  H     -297.275     224.322     -35.870
  H     -297.942     225.382     -39.502
  H     -297.053     222.753     -38.909
  H     -298.414     222.610     -36.914
  H     -300.658     223.868     -38.606
  H     -301.328     224.851     -36.393
  H     -292.332     228.049     -36.386
  H     -293.250     227.007     -35.302
  H     -301.514     223.088     -36.485
  P     -299.123     220.121     -37.708
  C     -301.139     219.494     -36.240
  O     -299.791     219.950     -36.258
  O     -297.653     219.895     -37.743
  O     -299.912     219.053     -38.597
  H     -299.341     218.287     -38.791
  H     -301.476     219.418     -35.227
  H     -301.197     218.534     -36.708
  H     -301.757     220.187     -36.771

 6  7  8  9  10  11  12  13  14  15  25  28  32  33  34  35 0
 6-311+G(2d,p)
 ****
 36  39  40 0
 6-311+G(2d,p)
 ****
 1  2  3  4  5  16  17  18  19  20  21  22  23  24 0
 3-21G
 ****
 26  27  29  30  31  37  38  41  42  43  44  45  46  47 0
 3-21G
 ****
 48 0
 3-21G
 ****


