%nproc=1
%NoSave
%Mem=1900MB
#P OB98/GEN NMR

erre ene a

0 1
  C      264.570     -44.941      89.063
  O      265.195     -45.643      90.115
  H      263.546     -45.308      88.958
  H      265.108     -45.127      88.129
  H      264.539     -43.867      89.260
  P      266.506     -45.019      90.783
  C      265.744     -44.756      93.236
  O      266.553     -45.483      92.320
  C      265.445     -45.569      94.495
  O      264.462     -46.583      94.196
  C      266.680     -46.295      95.032
  O      267.478     -45.524      95.913
  C      266.056     -47.485      95.757
  O      265.735     -47.157      97.119
  C      264.780     -47.760      94.956
  N      264.077     -52.781      94.295
  C      263.971     -52.035      95.456
  N      263.677     -52.726      96.578
  N      264.154     -50.741      95.499
  C      264.539     -50.207      94.318
  C      264.697     -50.847      93.110
  C      264.420     -52.267      93.054
  O      264.484     -52.968      92.051
  N      265.139     -49.984      92.135
  C      265.330     -48.849      92.777
  N      264.903     -48.914      94.083
  O      266.155     -43.458      90.907
  O      267.778     -45.213      90.015
  H      265.044     -46.466      97.107
  H      266.971     -42.932      90.823
  H      263.896     -53.768      94.319
  H      265.727     -47.942      92.337
  H      263.926     -47.952      95.617
  H      266.752     -48.328      95.793
  H      263.611     -53.730      96.617
  H      267.291     -46.680      94.211
  H      263.778     -52.249      97.476
  H      265.005     -44.910      95.254
  H      264.815     -44.524      92.712
  H      266.222     -43.807      93.496
  P      268.866     -44.897      95.427
  C      268.783     -42.716      96.886
  O      269.418     -43.938      96.577
  O      268.419     -43.877      94.278
  O      269.879     -45.880      94.940
  H      268.539     -44.278      93.397
  H      269.310     -42.231      97.681
  H      267.774     -42.905      97.189
  H      268.783     -42.085      96.022

 6  7  8  9  10  11  12  13  14  15  26  29  33  34 0
 6-311+G(2d,p)
 ****
 36  38  39  40  41 0
 6-311+G(2d,p)
 ****
 1  2  3  4  5  16  17  18  19  20  21  22  23  24  25 0
 3-21G
 ****
 27  28  30  31  32  35  37  42  43  44  45  46  47 0
 3-21G
 ****
 48  49 0
 3-21G
 ****


