%nproc=1
%NoSave
%Mem=1900MB
#P OB98/GEN NMR

erre ene a

0 1
  C      594.184    -783.012    -572.231
  O      595.356    -782.947    -573.008
  P      595.884    -784.238    -573.806
  C      594.902    -783.145    -575.936
  O      596.049    -783.765    -575.333
  C      595.320    -782.271    -577.107
  O      596.091    -781.142    -576.661
  C      596.187    -782.976    -578.134
  O      595.405    -783.831    -578.957
  C      596.814    -781.797    -578.864
  O      595.928    -781.284    -579.864
  C      596.997    -780.773    -577.719
  N      598.373    -780.711    -577.248
  C      599.229    -779.876    -577.970
  O      598.819    -779.273    -578.968
  N      600.550    -779.782    -577.596
  C      600.975    -780.491    -576.580
  N      602.295    -780.363    -576.258
  C      600.118    -781.408    -575.809
  C      598.837    -781.469    -576.204
  O      595.086    -785.474    -573.594
  O      597.412    -784.365    -573.314
  H      595.104    -781.025    -579.398
  H      597.457    -784.718    -572.383
  H      600.522    -781.985    -574.995
  H      598.142    -782.118    -575.690
  H      596.696    -779.768    -578.045
  H      597.742    -782.069    -579.363
  H      596.968    -783.546    -577.625
  H      594.402    -781.900    -577.589
  H      602.856    -779.742    -576.826
  H      594.415    -782.528    -575.177
  H      602.737    -780.888    -575.510
  H      594.196    -783.926    -576.250
  P      596.084    -784.602    -580.186
  C      596.795    -786.637    -578.786
  O      596.010    -786.180    -579.867
  O      597.422    -784.092    -580.603
  O      595.015    -784.427    -581.368
  H      595.499    -784.195    -582.193
  H      596.412    -787.615    -578.467
  H      596.750    -785.940    -577.952
  H      597.832    -786.748    -579.105
  H      594.000    -782.058    -571.782
  H      594.304    -783.749    -571.465
  H      593.357    -783.278    -572.855

 3  4  5  6  7  8  9  10  11  12  13  23  27  28  29  30  32 0
 6-311+G(2d,p)
 ****
 34  35 0
 6-311+G(2d,p)
 ****
 1  2  14  15  16  17  18  19  20  21  22  24  25  26 0
 3-21G
 ****
 31  33  36  37  38  39  40  41  42  43  44  45  46 0
 3-21G
 ****


