%nproc=1
%NoSave
%Mem=1900MB
#P OB98/GEN NMR

erre ene a

0 1
  C      115.659     -20.460     -71.574
  O      115.737     -19.120     -72.016
  H      116.247     -20.559     -70.657
  H      116.069     -21.137     -72.327
  H      114.622     -20.729     -71.354
  P      115.013     -18.718     -73.387
  C      114.247     -16.470     -74.400
  O      115.183     -17.130     -73.553
  C      114.189     -14.976     -74.058
  O      113.639     -14.851     -72.723
  C      115.576     -14.315     -74.074
  O      115.633     -13.150     -74.896
  C      115.900     -14.150     -72.593
  O      116.795     -13.097     -72.299
  C      114.517     -14.014     -71.947
  N      114.481     -14.396     -70.536
  C      114.887     -13.444     -69.607
  O      115.251     -12.298     -69.876
  N      114.857     -13.847     -68.295
  C      114.479     -15.074     -67.841
  O      114.467     -15.376     -66.652
  C      114.081     -16.044     -68.871
  C      114.101     -15.668     -70.152
  O      113.616     -19.218     -73.552
  O      115.981     -19.302     -74.522
  H      117.621     -13.259     -72.798
  H      115.603     -20.126     -74.882
  H      115.139     -13.161     -67.613
  H      113.785     -17.032     -68.546
  H      113.813     -16.358     -70.940
  H      114.160     -12.986     -72.021
  H      116.369     -15.077     -72.240
  H      116.321     -14.979     -74.528
  H      113.496     -14.482     -74.749
  H      113.268     -16.935     -74.247
  H      114.543     -16.599     -75.447
  P      116.477     -13.031     -76.244
  C      116.175     -11.774     -78.525
  O      115.787     -11.920     -77.168
  O      116.841     -14.322     -76.895
  O      117.847     -12.323     -75.762
  H      118.558     -12.675     -76.334
  H      115.607     -10.987     -78.976
  H      115.994     -12.689     -79.048
  H      117.217     -11.535     -78.574

 6  7  8  9  10  11  12  13  14  15  16  26  31  32  33  34  35 0
 6-311+G(2d,p)
 ****
 36  37 0
 6-311+G(2d,p)
 ****
 1  2  3  4  5  17  18  19  20  21  22  23  24  25 0
 3-21G
 ****
 27  28  29  30  38  39  40  41  42  43  44  45 0
 3-21G
 ****


