%nproc=1
%NoSave
%Mem=1900MB
#P OB98/GEN NMR

erre ene a

0 1
  C     -472.135     384.699     886.413
  O     -473.357     384.875     887.094
  H     -471.453     384.141     887.056
  H     -471.688     385.672     886.195
  H     -472.275     384.143     885.483
  P     -474.630     385.410     886.279
  C     -475.827     383.272     887.098
  O     -475.915     384.681     886.912
  C     -477.141     382.713     887.654
  O     -477.368     383.270     888.980
  C     -478.366     383.051     886.794
  O     -479.301     381.973     886.942
  C     -478.890     384.299     887.485
  O     -480.229     384.565     887.123
  C     -478.642     383.938     888.948
  N     -478.671     385.108     889.830
  C     -479.702     385.155     890.764
  O     -480.580     384.290     890.852
  N     -479.722     386.263     891.572
  C     -478.874     387.319     891.501
  O     -478.958     388.303     892.227
  C     -477.833     387.234     890.463
  C     -477.777     386.154     889.687
  O     -474.534     385.320     884.790
  O     -474.812     386.924     886.771
  H     -480.805     383.809     887.369
  H     -475.201     387.465     886.061
  H     -480.456     386.310     892.265
  H     -477.145     388.069     890.367
  H     -477.022     386.064     888.913
  H     -479.403     383.233     889.314
  H     -478.297     385.177     887.202
  H     -478.131     383.214     885.739
  H     -477.031     381.623     887.778
  H     -475.012     383.081     887.813
  H     -475.587     382.791     886.146
  P     -479.188     380.626     886.084
  C     -478.928     379.103     888.150
  O     -479.693     379.390     886.992
  O     -477.844     380.409     885.454
  O     -480.320     380.747     884.962
  H     -480.058     380.246     884.169
  H     -479.359     378.270     888.665
  H     -478.923     379.957     888.795
  H     -477.924     378.866     887.865

 6  7  8  9  10  11  12  13  14  15  16  26  31  32  33  34  35 0
 6-311+G(2d,p)
 ****
 36  37 0
 6-311+G(2d,p)
 ****
 1  2  3  4  5  17  18  19  20  21  22  23  24  25 0
 3-21G
 ****
 27  28  29  30  38  39  40  41  42  43  44  45 0
 3-21G
 ****


