%nproc=1
%NoSave
%Mem=1900MB
#P OB98/GEN NMR

erre ene a

0 1
  C     -207.084     199.918    -187.055
  O     -207.441     199.273    -188.260
  H     -206.696     199.169    -186.357
  H     -207.959     200.394    -186.609
  H     -206.305     200.663    -187.240
  P     -208.040     200.200    -189.426
  C     -206.888     198.763    -191.255
  O     -208.112     199.274    -190.742
  C     -207.150     197.890    -192.482
  O     -207.772     196.646    -192.051
  C     -208.080     198.537    -193.519
  O     -207.622     198.188    -194.829
  C     -209.411     197.853    -193.261
  O     -210.265     197.896    -194.400
  C     -208.940     196.455    -192.875
  N     -213.718     194.902    -193.157
  C     -212.948     195.606    -194.061
  N     -213.541     195.953    -195.226
  N     -211.703     195.940    -193.847
  C     -211.230     195.506    -192.657
  C     -211.891     194.815    -191.666
  C     -213.276     194.468    -191.908
  O     -214.015     193.870    -191.134
  N     -211.070     194.593    -190.588
  C     -209.919     195.147    -190.924
  N     -209.967     195.709    -192.170
  O     -206.843     201.211    -189.753
  O     -209.307     200.914    -189.093
  H     -211.152     197.592    -194.122
  H     -207.188     202.071    -190.061
  H     -214.675     194.681    -193.365
  H     -209.031     195.168    -190.307
  H     -208.652     195.855    -193.748
  H     -209.926     198.339    -192.426
  H     -214.487     195.701    -195.475
  H     -208.143     199.623    -193.431
  H     -212.992     196.460    -195.913
  H     -206.188     197.620    -192.930
  H     -206.398     198.164    -190.478
  H     -206.236     199.599    -191.527
  P     -207.035     199.364    -195.749
  C     -205.169     197.912    -196.824
  O     -206.322     198.709    -197.033
  O     -205.805     199.912    -194.883
  O     -208.017     200.449    -196.046
  H     -206.025     200.787    -194.520
  H     -204.811     197.549    -197.765
  H     -205.417     197.084    -196.193
  H     -204.408     198.501    -196.356

 6  7  8  9  10  11  12  13  14  15  26  29  33  34 0
 6-311+G(2d,p)
 ****
 36  38  39  40  41 0
 6-311+G(2d,p)
 ****
 1  2  3  4  5  16  17  18  19  20  21  22  23  24  25 0
 3-21G
 ****
 27  28  30  31  32  35  37  42  43  44  45  46  47 0
 3-21G
 ****
 48  49 0
 3-21G
 ****


