%nproc=1
%NoSave
%Mem=1900MB
#P OB98/GEN NMR

erre ene a

0 1
  C     -176.805    -253.272     -93.038
  O     -176.603    -254.335     -92.100
  P     -175.177    -255.065     -92.034
  C     -173.971    -257.029     -93.178
  O     -175.209    -256.358     -92.986
  C     -174.126    -258.327     -93.986
  O     -174.847    -259.327     -93.218
  C     -174.866    -258.153     -95.322
  O     -174.253    -259.055     -96.255
  C     -176.268    -258.608     -94.977
  O     -177.031    -258.941     -96.126
  C     -175.957    -259.772     -94.021
  N     -177.099    -260.145     -93.207
  C     -177.847    -261.250     -93.623
  O     -177.593    -261.806     -94.690
  N     -178.880    -261.683     -92.823
  C     -179.229    -260.980     -91.787
  N     -180.246    -261.444     -91.017
  C     -178.583    -259.699     -91.430
  C     -177.521    -259.360     -92.156
  O     -174.641    -255.304     -90.663
  O     -174.228    -254.054     -92.851
  H     -177.819    -259.452     -95.852
  H     -173.338    -254.064     -92.447
  H     -178.962    -259.097     -90.617
  H     -176.969    -258.453     -91.965
  H     -175.626    -260.655     -94.592
  H     -176.793    -257.806     -94.441
  H     -174.812    -257.136     -95.724
  H     -173.117    -258.724     -94.171
  H     -180.706    -262.309     -91.289
  H     -173.534    -257.261     -92.201
  H     -180.546    -260.972     -90.163
  H     -173.267    -256.339     -93.666
  P     -173.687    -258.480     -97.640
  C     -174.347    -258.704    -100.151
  O     -174.737    -258.835     -98.796
  O     -172.493    -259.505     -97.961
  O     -173.157    -257.077     -97.600
  H     -171.830    -259.059     -98.528
  H     -175.067    -259.236    -100.776
  H     -173.354    -259.127    -100.315
  H     -174.342    -257.643    -100.438
  H     -177.805    -252.902     -92.947
  H     -176.649    -253.638     -94.031
  H     -176.112    -252.482     -92.836

 3  4  5  6  7  8  9  10  11  12  13  23  27  28  29  30  32 0
 6-311+G(2d,p)
 ****
 34  35 0
 6-311+G(2d,p)
 ****
 1  2  14  15  16  17  18  19  20  21  22  24  25  26 0
 3-21G
 ****
 31  33  36  37  38  39  40  41  42  43  44  45  46 0
 3-21G
 ****


