%nproc=1
%NoSave
%Mem=1900MB
#P OB98/GEN NMR

erre ene a

0 1
  C      150.324    -333.073      61.350
  O      149.514    -333.007      60.183
  P      148.848    -334.326      59.575
  C      147.435    -332.955      57.839
  O      148.347    -334.001      58.095
  C      147.546    -332.552      56.360
  O      148.804    -331.898      56.114
  C      147.457    -333.768      55.437
  O      146.125    -333.958      54.989
  C      148.423    -333.410      54.323
  O      147.793    -332.539      53.372
  C      149.526    -332.654      55.101
  N      150.567    -333.446      55.781
  C      151.767    -332.842      56.151
  O      152.015    -331.654      55.969
  N      152.706    -333.672      56.723
  C      152.534    -335.000      56.994
  O      153.445    -335.775      57.276
  C      151.168    -335.506      56.836
  C      150.269    -334.730      56.227
  O      147.488    -334.462      60.404
  O      149.679    -335.567      59.661
  H      146.956    -332.964      53.108
  H      147.590    -335.107      61.128
  H      153.627    -333.271      56.861
  H      150.951    -336.516      57.171
  H      149.260    -335.098      56.066
  H      150.043    -331.939      54.454
  H      148.732    -334.297      53.770
  H      147.827    -334.662      55.959
  H      146.744    -331.835      56.127
  H      147.653    -332.098      58.481
  H      146.415    -333.281      58.066
  P      145.594    -335.439      54.697
  C      143.147    -334.742      54.371
  O      144.312    -335.248      53.750
  O      145.381    -336.303      55.900
  O      146.716    -336.046      53.727
  H      147.347    -336.588      54.243
  H      142.420    -334.487      53.597
  H      143.378    -333.844      54.946
  H      142.718    -335.505      55.027
  H      150.675    -332.093      61.597
  H      151.160    -333.715      61.168
  H      149.747    -333.461      62.163

 3  4  5  6  7  8  9  10  11  12  13  23  28  29  30  31  32 0
 6-311+G(2d,p)
 ****
 33  34 0
 6-311+G(2d,p)
 ****
 1  2  14  15  16  17  18  19  20  21  22  24  25  26  27 0
 3-21G
 ****
 35  36  37  38  39  40  41  42  43  44  45 0
 3-21G
 ****


