%nproc=1
%NoSave
%Mem=1900MB
#P OB98/GEN NMR

erre ene a

0 1
  C     -898.500     552.025     -79.210
  O     -898.300     553.231     -78.493
  H     -898.080     551.197     -78.626
  H     -897.970     552.068     -80.168
  H     -899.560     551.847     -79.372
  P     -898.750     554.584     -79.224
  C     -896.330     555.565     -79.279
  O     -897.470     555.121     -80.022
  C     -895.140     555.730     -80.210
  O     -894.700     554.431     -80.673
  C     -895.440     556.530     -81.475
  O     -895.460     557.926     -81.245
  C     -894.290     556.107     -82.371
  O     -893.110     556.888     -82.127
  C     -894.080     554.633     -81.974
  N     -894.610     553.714     -82.970
  C     -893.730     553.358     -83.997
  O     -892.570     553.759     -84.048
  N     -894.230     552.534     -84.959
  C     -895.520     552.087     -85.034
  O     -895.930     551.396     -85.958
  C     -896.420     552.518     -83.946
  C     -895.930     553.301     -82.985
  O     -898.900     555.618     -78.009
  O     -900.000     554.488     -80.036
  H     -899.840     555.792     -77.837
  H     -892.460     556.623     -82.809
  H     -893.610     552.252     -85.693
  H     -897.450     552.175     -83.980
  H     -896.570     553.641     -82.178
  H     -893.020     554.419     -81.839
  H     -894.550     556.223     -83.424
  H     -896.390     556.189     -81.923
  H     -894.320     556.193     -79.653
  H     -896.090     554.826     -78.514
  H     -896.590     556.507     -78.789
  P     -896.070     558.869     -82.404
  C     -893.860     560.294     -82.574
  O     -894.790     559.429     -83.208
  O     -896.580     560.107     -81.543
  O     -897.110     558.180     -83.232
  H     -896.080     560.206     -80.718
  H     -893.087     560.555     -83.266
  H     -893.430     559.798     -81.729
  H     -894.362     561.181     -82.249

 6  7  8  9  10  11  12  13  14  15  16  27  31  32  33  34  35 0
 6-311+G(2d,p)
 ****
 36  37 0
 6-311+G(2d,p)
 ****
 1  2  3  4  5  17  18  19  20  21  22  23  24  25 0
 3-21G
 ****
 26  28  29  30  38  39  40  41  42  43  44  45 0
 3-21G
 ****


