%nproc=1
%NoSave
%Mem=1900MB
#P OB98/GEN NMR

erre ene a

0 1
  C     -120.318     -15.327      81.261
  O     -120.288     -14.550      80.080
  H     -121.357     -15.583      81.484
  H     -119.908     -14.764      82.103
  H     -119.752     -16.253      81.123
  P     -118.866     -14.043      79.543
  C     -120.040     -11.818      78.963
  O     -119.183     -12.857      78.511
  C     -120.290     -10.819      77.838
  O     -119.150      -9.953      77.673
  C     -120.544     -11.469      76.479
  O     -121.890     -11.903      76.381
  C     -120.221     -10.305      75.555
  O     -121.315      -9.368      75.553
  C     -118.994      -9.690      76.251
  N     -115.742     -10.123      72.387
  C     -116.993      -9.539      72.432
  N     -117.460      -9.038      71.269
  N     -117.726      -9.472      73.513
  C     -117.159     -10.080      74.581
  C     -115.936     -10.704      74.655
  C     -115.110     -10.722      73.467
  O     -113.988     -11.214      73.389
  N     -115.729     -11.260      75.892
  C     -116.809     -10.937      76.575
  N     -117.716     -10.233      75.819
  O     -117.951     -15.096      78.992
  O     -118.225     -13.282      80.795
  H     -122.039      -9.787      75.054
  H     -117.668     -13.882      81.323
  H     -115.234     -10.159      71.518
  H     -116.984     -11.185      77.615
  H     -118.944      -8.603      76.122
  H     -120.052     -10.611      74.523
  H     -117.074      -9.313      70.373
  H     -119.836     -12.279      76.276
  H     -118.395      -8.652      71.269
  H     -121.136     -10.185      78.134
  H     -119.547     -11.328      79.809
  H     -120.994     -12.233      79.305
  P     -122.310     -13.397      76.794
  C     -123.170     -14.486      74.614
  O     -123.508     -13.780      75.799
  O     -122.618     -13.583      78.241
  O     -121.114     -14.311      76.265
  H     -120.379     -14.418      76.918
  H     -124.057     -14.676      74.046
  H     -122.706     -15.415      74.872
  H     -122.492     -13.899      74.030

 6  7  8  9  10  11  12  13  14  15  26  29  33  34 0
 6-311+G(2d,p)
 ****
 36  38  39  40  41 0
 6-311+G(2d,p)
 ****
 1  2  3  4  5  16  17  18  19  20  21  22  23  24  25 0
 3-21G
 ****
 27  28  30  31  32  35  37  42  43  44  45  46  47 0
 3-21G
 ****
 48  49 0
 3-21G
 ****


