%nproc=1
%NoSave
%Mem=1900MB
#P OB98/GEN NMR

erre ene a

0 1
  C       32.702    -134.600    -284.579
  O       34.100    -134.290    -284.514
  P       34.799    -134.251    -283.066
  C       35.439    -136.761    -282.850
  O       35.890    -135.422    -282.990
  C       36.617    -137.736    -282.927
  O       36.283    -139.030    -282.392
  C       37.091    -138.006    -284.352
  O       37.959    -136.975    -284.820
  C       37.867    -139.299    -284.167
  O       39.176    -139.018    -283.633
  C       37.021    -140.036    -283.123
  N       36.467    -144.697    -285.176
  C       37.557    -144.034    -284.733
  N       37.628    -142.791    -284.215
  C       36.411    -142.226    -284.166
  C       35.209    -142.781    -284.589
  C       35.265    -144.084    -285.111
  N       34.152    -144.757    -285.563
  N       34.162    -141.901    -284.389
  C       34.721    -140.835    -283.847
  N       36.077    -140.982    -283.698
  O       33.633    -134.764    -282.095
  O       35.282    -132.897    -282.667
  H       39.646    -139.869    -283.559
  H       33.696    -134.313    -281.234
  H       38.496    -144.571    -284.798
  H       34.190    -139.946    -283.542
  H       37.631    -140.593    -282.396
  H       38.019    -139.840    -285.107
  H       36.242    -138.166    -285.027
  H       37.448    -137.317    -282.341
  H       34.703    -136.997    -283.625
  H       34.267    -145.695    -285.901
  H       33.246    -144.309    -285.496
  H       34.915    -136.865    -281.890
  P       37.400    -136.018    -285.978
  C       36.931    -133.633    -285.064
  O       37.882    -134.539    -285.593
  O       35.822    -136.002    -285.706
  O       37.726    -136.477    -287.361
  H       35.337    -135.882    -286.544
  H       37.471    -132.810    -284.585
  H       36.298    -134.118    -284.313
  H       36.318    -133.229    -285.870
  H       32.381    -134.589    -285.600
  H       32.149    -133.872    -284.023
  H       32.532    -135.571    -284.163

 3  4  5  6  7  8  9  10  11  12  22  25  29  30  31  32 0
 6-311+G(2d,p)
 ****
 33  36  37 0
 6-311+G(2d,p)
 ****
 1  2  13  14  15  16  17  18  19  20  21  23  24  26 0
 3-21G
 ****
 27  28  34  35  38  39  40  41  42  43  44  45  46  47  48 0
 3-21G
 ****


