%nproc=1
%NoSave
%Mem=1900MB
#P OB98/GEN NMR

erre ene a

0 1
  C      490.489    -150.556      28.114
  O      491.100    -149.547      27.335
  H      491.239    -151.265      28.478
  H      489.998    -150.089      28.971
  H      489.736    -151.086      27.519
  P      491.967    -150.045      26.079
  C      493.191    -147.823      25.530
  O      493.296    -149.140      26.059
  C      494.134    -146.884      26.273
  O      493.655    -146.656      27.617
  C      495.558    -147.407      26.435
  O      496.327    -147.243      25.253
  C      496.059    -146.507      27.558
  O      496.453    -145.226      27.014
  C      494.812    -146.339      28.436
  N      496.279    -146.842      33.338
  C      496.447    -145.837      32.443
  N      496.041    -145.776      31.154
  C      495.379    -146.894      30.813
  C      495.125    -147.997      31.612
  C      495.616    -147.946      32.932
  N      495.449    -148.978      33.834
  N      494.406    -148.951      30.929
  C      494.226    -148.434      29.728
  N      494.799    -147.194      29.606
  O      491.138    -149.512      24.816
  O      492.196    -151.519      26.003
  H      496.972    -144.775      27.702
  H      491.208    -150.164      24.091
  H      496.976    -144.962      32.809
  H      493.682    -148.915      28.922
  H      494.690    -145.301      28.770
  H      496.927    -146.916      28.084
  H      495.562    -148.448      26.778
  H      494.132    -145.919      25.746
  H      492.165    -147.467      25.641
  H      495.643    -148.811      34.807
  H      494.942    -149.807      33.526
  H      493.445    -147.851      24.466
  P      497.716    -148.045      25.156
  C      498.396    -146.474      23.208
  O      498.751    -147.029      24.465
  O      497.438    -149.124      24.004
  O      498.166    -148.694      26.423
  H      498.023    -149.897      24.121
  H      499.175    -145.821      22.873
  H      497.485    -145.921      23.307
  H      498.260    -147.261      22.496

 6  7  8  9  10  11  12  13  14  15  25  28  32  33  34  35 0
 6-311+G(2d,p)
 ****
 36  39  40 0
 6-311+G(2d,p)
 ****
 1  2  3  4  5  16  17  18  19  20  21  22  23  24 0
 3-21G
 ****
 26  27  29  30  31  37  38  41  42  43  44  45  46  47  48 0
 3-21G
 ****


