%nproc=1
%NoSave
%Mem=1900MB
#P OB98/GEN NMR

erre ene a

0 1
  C       46.214    -307.335     -37.900
  O       46.161    -308.625     -38.485
  P       46.413    -309.923     -37.582
  C       48.765    -310.431     -38.576
  O       47.999    -310.094     -37.441
  C       49.263    -311.878     -38.502
  O       49.782    -312.244     -39.804
  C       50.415    -312.112     -37.519
  O       50.494    -313.514     -37.236
  C       51.610    -311.693     -38.339
  O       52.833    -312.228     -37.822
  C       51.231    -312.154     -39.767
  N       51.717    -311.218     -40.800
  C       52.561    -311.749     -41.776
  O       52.840    -312.944     -41.847
  N       53.143    -310.828     -42.612
  C       53.002    -309.472     -42.526
  O       53.743    -308.669     -43.066
  C       51.919    -309.007     -41.635
  C       51.353    -309.884     -40.801
  O       45.982    -311.121     -38.558
  O       45.649    -309.955     -36.296
  H       52.877    -311.955     -36.871
  H       45.069    -311.395     -38.377
  H       53.867    -311.198     -43.229
  H       51.672    -307.955     -41.651
  H       50.589    -309.554     -40.098
  H       51.642    -313.147     -39.986
  H       51.702    -310.597     -38.310
  H       50.329    -311.541     -36.587
  H       48.425    -312.542     -38.275
  H       49.612    -309.737     -38.661
  H       48.169    -310.308     -39.488
  P       51.040    -313.960     -35.795
  C       52.807    -315.514     -36.842
  O       52.576    -314.388     -36.012
  O       50.200    -314.944     -35.049
  O       51.175    -312.565     -35.009
  H       51.213    -312.735     -34.043
  H       53.780    -315.402     -37.322
  H       52.036    -315.609     -37.619
  H       52.816    -316.420     -36.224
  H       46.022    -306.595     -38.649
  H       47.185    -307.174     -37.480
  H       45.475    -307.262     -37.130

 3  4  5  6  7  8  9  10  11  12  13  23  28  29  30  31  32 0
 6-311+G(2d,p)
 ****
 33  34 0
 6-311+G(2d,p)
 ****
 1  2  14  15  16  17  18  19  20  21  22  24  25  26  27 0
 3-21G
 ****
 35  36  37  38  39  40  41  42  43  44  45 0
 3-21G
 ****


