%nproc=1
%NoSave
%Mem=1900MB
#P OB98/GEN NMR

erre ene a

0 1
  C       -7.774      76.050    -143.026
  O       -8.425      75.135    -142.170
  H       -6.821      75.617    -143.340
  H       -7.575      76.990    -142.505
  H       -8.381      76.238    -143.916
  P       -9.823      75.557    -141.511
  C      -11.573      73.687    -141.828
  O      -10.527      74.203    -141.012
  C      -12.073      72.352    -141.263
  O      -11.074      71.346    -141.556
  C      -12.281      72.397    -139.742
  O      -13.579      71.964    -139.338
  C      -11.080      71.627    -139.203
  O      -11.285      71.022    -137.942
  C      -10.760      70.646    -140.337
  N       -9.372      70.188    -140.349
  C       -9.049      69.115    -139.523
  O       -9.842      68.508    -138.807
  N       -7.733      68.725    -139.549
  C       -6.741      69.292    -140.287
  O       -5.581      68.896    -140.274
  C       -7.139      70.436    -141.121
  C       -8.417      70.827    -141.115
  O      -10.689      76.441    -142.343
  O       -9.404      76.269    -140.138
  H      -10.436      70.628    -137.660
  H       -9.472      77.237    -140.239
  H       -7.490      67.941    -138.963
  H       -6.376      70.919    -141.716
  H       -8.746      71.667    -141.719
  H      -11.400      69.767    -140.277
  H      -10.244      72.330    -139.090
  H      -12.234      73.428    -139.373
  H      -12.993      72.068    -141.789
  H      -11.177      73.546    -142.838
  H      -12.399      74.406    -141.866
  P      -14.909      72.834    -139.476
  C      -16.308      70.616    -139.461
  O      -16.141      71.941    -138.980
  O      -15.077      73.560    -140.768
  O      -14.749      73.941    -138.312
  H      -15.186      74.755    -138.639
  H      -17.181      70.183    -139.019
  H      -15.450      70.032    -139.202
  H      -16.419      70.634    -140.525

 6  7  8  9  10  11  12  13  14  15  16  26  31  32  33  34  35 0
 6-311+G(2d,p)
 ****
 36  37 0
 6-311+G(2d,p)
 ****
 1  2  3  4  5  17  18  19  20  21  22  23  24  25 0
 3-21G
 ****
 27  28  29  30  38  39  40  41  42  43  44  45 0
 3-21G
 ****


