%nproc=1
%NoSave
%Mem=1900MB
#P OB98/GEN NMR

erre ene a

0 1
  C       82.767     -35.933    1156.274
  O       83.843     -36.790    1155.956
  H       81.859     -36.531    1156.404
  H       82.596     -35.217    1155.465
  H       82.966     -35.398    1157.208
  P       85.293     -36.151    1155.721
  C       84.965     -36.042    1153.143
  O       85.685     -36.617    1154.228
  C       85.603     -36.433    1151.824
  O       86.884     -35.791    1151.641
  C       85.898     -37.922    1151.659
  O       84.739     -38.705    1151.442
  C       86.803     -37.886    1150.447
  O       86.030     -37.672    1149.263
  C       87.691     -36.654    1150.776
  N       88.947     -37.011    1151.435
  C       90.089     -36.299    1151.041
  O       90.004     -35.423    1150.187
  N       91.300     -36.620    1151.609
  C       91.361     -37.586    1152.482
  N       92.591     -37.852    1153.010
  C       90.189     -38.368    1152.907
  C       89.029     -38.038    1152.350
  O       86.319     -36.435    1156.770
  O       85.013     -34.590    1155.502
  H       85.265     -38.272    1149.305
  H       85.882     -34.142    1155.358
  H       90.307     -39.182    1153.611
  H       88.124     -38.587    1152.616
  H       87.922     -36.081    1149.874
  H       87.373     -38.808    1150.303
  H       86.473     -38.300    1152.521
  H       84.948     -36.070    1151.012
  H       93.378     -37.301    1152.700
  H       84.957     -34.952    1153.282
  H       92.761     -38.637    1153.635
  H       83.932     -36.399    1153.157
  P       84.248     -39.648    1152.667
  C       86.022     -41.520    1152.251
  O       84.664     -41.146    1152.269
  O       82.658     -39.623    1152.527
  O       84.723     -39.202    1154.018
  H       82.267     -38.976    1153.151
  H       86.105     -42.548    1151.965
  H       86.442     -41.386    1153.226
  H       86.551     -40.910    1151.548

 6  7  8  9  10  11  12  13  14  15  16  26  30  31  32  33  35 0
 6-311+G(2d,p)
 ****
 37  38 0
 6-311+G(2d,p)
 ****
 1  2  3  4  5  17  18  19  20  21  22  23  24  25 0
 3-21G
 ****
 27  28  29  34  36  39  40  41  42  43  44  45  46 0
 3-21G
 ****


