%nproc=1
%NoSave
%Mem=1900MB
#P OB98/GEN NMR

erre ene a

0 1
  C       16.920      59.629    -108.348
  O       17.903      58.756    -108.907
  P       17.482      57.333    -109.522
  C       17.636      54.845    -108.940
  O       17.946      56.168    -108.518
  C       17.637      53.821    -107.797
  O       18.972      53.640    -107.263
  C       16.725      54.170    -106.619
  O       16.241      52.922    -106.111
  C       17.691      54.815    -105.640
  O       17.189      54.845    -104.311
  C       18.941      53.953    -105.858
  N       20.163      54.625    -105.425
  C       20.511      54.498    -104.078
  O       19.775      53.890    -103.299
  N       21.661      55.105    -103.631
  C       22.347      55.853    -104.439
  N       23.461      56.449    -103.933
  C       21.968      56.086    -105.848
  C       20.882      55.440    -106.269
  O       17.886      57.123    -110.946
  O       15.882      57.318    -109.387
  H       17.033      53.924    -104.017
  H       15.504      56.781    -110.110
  H       22.557      56.742    -106.476
  H       20.524      55.540    -107.288
  H       18.857      53.005    -105.309
  H       17.886      55.851    -105.945
  H       15.896      54.828    -106.890
  H       17.336      52.855    -108.225
  H       23.673      56.281    -102.956
  H       18.371      54.541    -109.696
  H       24.000      57.137    -104.439
  H       16.654      54.850    -109.431
  P       14.727      52.449    -106.318
  C       12.725      51.930    -104.806
  O       14.038      52.461    -104.870
  O       14.567      51.167    -107.070
  O       14.013      53.666    -107.078
  H       13.184      53.350    -107.485
  H       12.444      51.797    -103.758
  H       12.674      50.957    -105.314
  H       12.022      52.624    -105.276
  H       17.395      60.520    -107.994
  H       16.429      59.138    -107.534
  H       16.200      59.882    -109.098

 3  4  5  6  7  8  9  10  11  12  13  23  27  28  29  30  32 0
 6-311+G(2d,p)
 ****
 34  35 0
 6-311+G(2d,p)
 ****
 1  2  14  15  16  17  18  19  20  21  22  24  25  26 0
 3-21G
 ****
 31  33  36  37  38  39  40  41  42  43  44  45  46 0
 3-21G
 ****


