%nproc=1
%NoSave
%Mem=1900MB
#P OB98/GEN NMR

erre ene a

0 1
  C      -19.726      62.916     108.072
  O      -18.829      63.672     108.869
  P      -19.373      65.002     109.577
  C      -18.325      66.432     107.674
  O      -19.475      66.145     108.456
  C      -18.515      67.743     106.908
  O      -19.607      67.587     105.950
  C      -18.857      68.947     107.799
  O      -18.261      70.109     107.205
  C      -20.368      69.028     107.675
  O      -20.890      70.297     108.035
  C      -20.535      68.665     106.195
  N      -21.907      68.284     105.855
  C      -22.903      69.233     106.059
  O      -22.699      70.361     106.506
  N      -24.181      68.822     105.789
  C      -24.564      67.561     105.431
  O      -25.737      67.227     105.318
  C      -23.467      66.601     105.230
  C      -22.210      66.998     105.446
  O      -18.137      65.466     110.482
  O      -20.616      64.817     110.382
  H      -21.862      70.223     108.047
  H      -18.275      65.201     111.410
  H      -24.915      69.501     105.920
  H      -23.732      65.595     104.926
  H      -21.385      66.305     105.326
  H      -20.224      69.506     105.562
  H      -20.828      68.276     108.326
  H      -18.522      68.833     108.836
  H      -17.604      67.944     106.329
  H      -18.164      65.620     106.963
  H      -17.444      66.489     108.325
  P      -17.980      71.378     108.151
  C      -19.905      72.818     107.125
  O      -19.360      72.184     108.260
  O      -17.081      72.282     107.179
  O      -17.306      71.030     109.438
  H      -17.423      72.306     106.270
  H      -19.700      72.253     106.211
  H      -19.484      73.822     107.032
  H      -20.989      72.902     107.250
  H      -19.216      62.065     107.672
  H      -20.090      63.524     107.270
  H      -20.549      62.589     108.673

 3  4  5  6  7  8  9  10  11  12  13  23  28  29  30  31  32 0
 6-311+G(2d,p)
 ****
 33  34 0
 6-311+G(2d,p)
 ****
 1  2  14  15  16  17  18  19  20  21  22  24  25  26 0
 3-21G
 ****
 27  35  36  37  38  39  40  41  42  43  44  45 0
 3-21G
 ****


