%nproc=1
%NoSave
%Mem=1900MB
#P OB98/GEN NMR

erre ene a

0 1
  C       96.358     -45.752     128.835
  O       96.190     -44.478     128.235
  P       96.262     -44.308     126.641
  C       98.102     -44.370     124.844
  O       97.805     -44.477     126.232
  C       99.559     -44.734     124.571
  O       99.711     -46.170     124.670
  C      100.043     -44.318     123.187
  O      101.413     -43.909     123.277
  C       99.979     -45.593     122.367
  O      100.912     -45.557     121.272
  C      100.270     -46.653     123.434
  N      101.165     -51.542     122.136
  C      102.002     -50.519     122.412
  N      101.697     -49.239     122.725
  C      100.365     -49.077     122.792
  C       99.385     -50.027     122.543
  C       99.834     -51.316     122.196
  N       98.973     -52.362     121.927
  N       98.125     -49.479     122.682
  C       98.341     -48.231     123.031
  N       99.678     -47.940     123.121
  O       95.612     -43.080     126.107
  O       95.586     -45.637     126.066
  H      100.724     -44.743     120.761
  H       95.054     -45.433     125.273
  H      103.064     -50.757     122.374
  H       97.572     -47.495     123.216
  H      101.350     -46.794     123.580
  H       98.973     -45.711     121.947
  H       99.442     -43.514     122.751
  H      100.184     -44.283     125.356
  H       97.923     -43.335     124.534
  H       99.382     -53.275     121.808
  H       97.993     -52.240     122.141
  H       97.428     -45.025     124.276
  P      101.803     -42.574     122.464
  C      101.845     -42.159     119.893
  O      102.028     -43.067     120.956
  O      102.921     -41.828     123.115
  O      100.400     -41.796     122.450
  H       99.645     -42.416     122.544
  H      102.004     -42.686     118.948
  H      102.574     -41.345     119.961
  H      100.832     -41.751     119.906
  H       96.277     -45.659     129.898
  H       97.323     -46.140     128.584
  H       95.601     -46.418     128.476

 3  4  5  6  7  8  9  10  11  12  22  25  29  30  31  32 0
 6-311+G(2d,p)
 ****
 33  36  37 0
 6-311+G(2d,p)
 ****
 1  2  13  14  15  16  17  18  19  20  21  23  24  26 0
 3-21G
 ****
 27  28  34  35  38  39  40  41  42  43  44  45  46  47  48 0
 3-21G
 ****


