%nproc=1
%NoSave
%Mem=1900MB
#P OB98/GEN NMR

erre ene a

0 1
  C       11.619     -61.602     211.829
  O       10.614     -62.156     211.008
  P       10.198     -61.470     209.623
  C        7.955     -60.718     210.641
  O        8.591     -61.434     209.589
  C        6.436     -60.921     210.580
  O        5.820     -60.164     211.668
  C        5.820     -60.431     209.254
  O        5.006     -61.398     208.588
  C        5.110     -59.153     209.668
  O        4.090     -58.746     208.774
  C        4.684     -59.483     211.101
  N        4.311     -58.293     211.862
  C        2.980     -58.184     212.257
  O        2.114     -59.018     212.015
  N        2.640     -57.027     212.901
  C        3.448     -55.946     213.087
  O        3.049     -54.903     213.584
  C        4.832     -56.105     212.614
  C        5.204     -57.259     212.054
  O       10.825     -62.059     208.404
  O       10.559     -59.928     209.860
  H        4.385     -58.955     207.867
  H       10.094     -59.508     210.604
  H        1.680     -56.934     213.192
  H        5.494     -55.259     212.737
  H        6.217     -57.405     211.698
  H        3.845     -60.179     211.118
  H        5.855     -58.347     209.685
  H        6.601     -60.194     208.522
  H        6.235     -61.985     210.740
  H        8.178     -59.655     210.530
  H        8.359     -61.041     211.607
  P        5.248     -61.933     207.100
  C        3.744     -60.150     205.952
  O        3.985     -61.518     206.209
  O        5.648     -63.367     206.997
  O        6.410     -60.982     206.545
  H        6.938     -61.464     205.882
  H        2.669     -60.006     205.808
  H        4.261     -59.859     205.035
  H        4.078     -59.519     206.779
  H       11.742     -62.210     212.701
  H       11.336     -60.612     212.121
  H       12.541     -61.564     211.288

 3  4  5  6  7  8  9  10  11  12  13  23  28  29  30  31  32 0
 6-311+G(2d,p)
 ****
 33  34 0
 6-311+G(2d,p)
 ****
 1  2  14  15  16  17  18  19  20  21  22  24  25  26  27 0
 3-21G
 ****
 35  36  37  38  39  40  41  42  43  44  45 0
 3-21G
 ****


