%nproc=1
%NoSave
%Mem=1900MB
#P OB98/GEN NMR

erre ene a

0 1
  C     -326.853     219.597     418.557
  O     -327.657     218.677     419.256
  H     -326.019     219.061     418.104
  H     -326.456     220.342     419.258
  H     -327.418     220.106     417.770
  P     -329.162     219.086     419.626
  C     -328.519     220.741     421.504
  O     -329.194     219.530     421.168
  C     -329.193     221.459     422.668
  O     -330.577     221.725     422.344
  C     -329.197     220.622     423.952
  O     -328.035     220.761     424.749
  C     -330.428     221.165     424.681
  O     -330.091     222.301     425.496
  C     -331.360     221.581     423.541
  N     -335.624     219.412     425.345
  C     -334.721     220.218     426.000
  N     -334.961     220.438     427.314
  N     -333.665     220.742     425.431
  C     -333.501     220.345     424.139
  C     -334.321     219.534     423.391
  C     -335.522     219.023     424.016
  O     -336.361     218.317     423.471
  N     -333.802     219.321     422.137
  C     -332.639     219.933     422.163
  N     -332.446     220.636     423.329
  O     -329.934     217.676     419.658
  O     -329.821     220.031     418.674
  H     -330.891     222.575     425.983
  H     -330.859     217.810     419.383
  H     -336.430     219.061     425.837
  H     -331.915     219.944     421.347
  H     -331.829     222.557     423.736
  H     -330.851     220.402     425.352
  H     -335.707     219.995     427.826
  H     -329.373     219.564     423.730
  H     -334.229     220.863     427.881
  H     -328.710     222.436     422.825
  H     -328.552     221.368     420.608
  H     -327.468     220.544     421.728
  P     -327.036     219.524     424.976
  C     -328.434     218.862     427.109
  O     -327.169     219.061     426.495
  O     -325.599     220.225     424.929
  O     -327.166     218.409     423.993
  H     -325.188     220.101     424.047
  H     -328.293     218.555     428.124
  H     -328.973     218.105     426.579
  H     -328.989     219.776     427.087

 6  7  8  9  10  11  12  13  14  15  26  29  33  34 0
 6-311+G(2d,p)
 ****
 36  38  39  40  41 0
 6-311+G(2d,p)
 ****
 1  2  3  4  5  16  17  18  19  20  21  22  23  24  25 0
 3-21G
 ****
 27  28  30  31  32  35  37  42  43  44  45  46  47 0
 3-21G
 ****
 48  49 0
 3-21G
 ****


