%nproc=1
%NoSave
%Mem=1900MB
#P OB98/GEN NMR

erre ene a

0 1
  C       47.947     230.157     276.674
  O       47.188     229.693     277.767
  P       47.398     228.206     278.333
  C       46.800     228.988     280.712
  O       47.779     228.366     279.885
  C       47.477     229.932     281.700
  O       48.052     231.080     281.022
  C       46.530     230.544     282.726
  O       45.940     229.672     283.663
  C       47.377     231.679     283.272
  O       48.304     231.215     284.254
  C       48.128     232.148     281.999
  N       47.590     233.402     281.475
  C       48.054     234.561     282.085
  O       48.866     234.569     283.007
  N       47.521     235.735     281.615
  C       46.565     235.855     280.652
  O       46.101     236.935     280.311
  C       46.100     234.591     280.059
  C       46.625     233.438     280.489
  O       48.335     227.354     277.547
  O       45.904     227.629     278.409
  H       47.808     230.655     284.884
  H       45.303     228.131     278.988
  H       47.837     236.588     282.051
  H       45.347     234.650     279.282
  H       46.297     232.493     280.066
  H       49.194     232.296     282.216
  H       46.765     232.455     283.747
  H       45.695     231.001     282.184
  H       48.303     229.399     282.181
  H       46.262     228.215     281.268
  H       46.076     229.520     280.083
  P       44.369     229.654     283.987
  C       44.094     227.093     283.710
  O       43.723     228.378     283.267
  O       43.649     230.956     283.872
  O       44.369     229.197     285.529
  H       43.604     229.598     285.977
  H       43.593     226.348     283.082
  H       43.784     226.940     284.746
  H       45.175     226.953     283.620
  H       47.665     231.164     276.446
  H       47.765     229.534     275.823
  H       48.987     230.125     276.923

 3  4  5  6  7  8  9  10  11  12  13  23  28  29  30  31  32 0
 6-311+G(2d,p)
 ****
 33  34 0
 6-311+G(2d,p)
 ****
 1  2  14  15  16  17  18  19  20  21  22  24  25  26  27 0
 3-21G
 ****
 35  36  37  38  39  40  41  42  43  44  45 0
 3-21G
 ****


