%nproc=1
%NoSave
%Mem=1900MB
#P OB98/GEN NMR

erre ene a

0 1
  C        5.746     177.613     314.848
  O        6.714     177.634     313.817
  P        7.109     179.006     313.096
  C        9.242     179.455     314.435
  O        7.920     179.896     314.157
  C       10.283     180.413     313.856
  O       11.614     179.932     314.197
  C       10.231     180.576     312.333
  O       10.605     181.929     312.047
  C       11.330     179.637     311.858
  O       11.796     179.946     310.550
  C       12.358     179.841     312.963
  N       16.381     177.615     310.732
  C       15.616     178.662     310.359
  N       14.547     179.182     310.999
  C       14.290     178.500     312.128
  C       14.963     177.393     312.618
  C       16.070     176.953     311.871
  N       16.883     175.907     312.249
  N       14.364     176.939     313.778
  C       13.354     177.759     313.979
  N       13.312     178.757     313.046
  O        5.983     179.717     312.418
  O        8.235     178.580     312.043
  H       12.507     179.319     310.323
  H        7.865     178.591     311.135
  H       15.905     179.158     309.438
  H       12.630     177.678     314.783
  H       12.920     180.773     312.837
  H       10.953     178.606     311.851
  H        9.258     180.342     311.893
  H       10.162     181.387     314.352
  H        9.374     178.469     313.983
  H       17.724     175.763     311.716
  H       16.840     175.574     313.211
  H        9.381     179.356     315.520
  P       10.283     182.558     310.604
  C        7.970     183.292     311.433
  O        8.690     182.556     310.455
  O       11.035     181.960     309.465
  O       10.627     184.114     310.794
  H       10.734     184.531     309.915
  H        7.878     182.693     312.340
  H        6.973     183.518     311.046
  H        8.480     184.231     311.665
  H        5.622     176.610     315.200
  H        4.813     177.976     314.469
  H        6.070     178.237     315.654

 3  4  5  6  7  8  9  10  11  12  22  25  29  30  31  32 0
 6-311+G(2d,p)
 ****
 33  36  37 0
 6-311+G(2d,p)
 ****
 1  2  13  14  15  16  17  18  19  20  21  23  24  26 0
 3-21G
 ****
 27  28  34  35  38  39  40  41  42  43  44  45  46  47  48 0
 3-21G
 ****


