%nproc=1
%NoSave
%Mem=1900MB
#P OB98/GEN NMR

erre ene a

0 1
  C      180.440    -315.689      37.558
  O      179.882    -316.973      37.391
  H      180.211    -315.336      38.568
  H      179.995    -315.001      36.836
  H      181.526    -315.703      37.430
  P      180.434    -317.905      36.213
  C      178.911    -319.848      36.981
  O      179.320    -319.021      35.896
  C      177.911    -320.913      36.533
  O      176.707    -320.273      36.056
  C      178.440    -321.771      35.381
  O      179.206    -322.897      35.791
  C      177.148    -322.208      34.694
  O      176.629    -323.418      35.273
  C      176.191    -321.034      34.953
  N      173.018    -318.289      32.028
  C      172.711    -319.164      33.058
  N      171.398    -319.349      33.303
  N      173.618    -319.800      33.753
  C      174.882    -319.590      33.326
  C      175.304    -318.762      32.307
  C      174.301    -318.001      31.588
  O      174.522    -317.202      30.685
  N      176.671    -318.833      32.132
  C      177.051    -319.763      32.985
  N      176.016    -320.195      33.784
  O      181.587    -318.764      36.925
  O      180.976    -317.181      35.018
  H      176.620    -323.310      36.245
  H      182.283    -318.975      36.277
  H      172.282    -317.805      31.549
  H      178.064    -320.131      33.091
  H      175.194    -321.393      35.242
  H      177.322    -322.419      33.632
  H      170.659    -318.952      32.743
  H      179.011    -321.160      34.676
  H      171.128    -320.122      33.920
  H      177.625    -321.526      37.396
  H      178.454    -319.185      37.717
  H      179.778    -320.313      37.452
  P      180.792    -322.917      35.610
  C      181.136    -324.503      37.673
  O      181.362    -324.237      36.306
  O      181.285    -321.746      36.578
  O      181.284    -322.727      34.210
  H      181.453    -320.929      36.074
  H      181.599    -325.431      37.937
  H      180.083    -324.565      37.855
  H      181.554    -323.715      38.264

 6  7  8  9  10  11  12  13  14  15  26  29  33  34 0
 6-311+G(2d,p)
 ****
 36  38  39  40  41 0
 6-311+G(2d,p)
 ****
 1  2  3  4  5  16  17  18  19  20  21  22  23  24  25 0
 3-21G
 ****
 27  28  30  31  32  35  37  42  43  44  45  46  47 0
 3-21G
 ****
 48  49 0
 3-21G
 ****


