%nproc=1
%NoSave
%Mem=1900MB
#P OB98/GEN NMR

erre ene a

0 1
  C     -193.121    -555.136     387.013
  O     -193.513    -553.785     386.891
  P     -192.477    -552.574     386.800
  C     -192.628    -552.535     384.206
  O     -191.781    -552.618     385.347
  C     -192.085    -551.598     383.114
  O     -192.191    -550.232     383.566
  C     -190.590    -551.867     382.895
  O     -190.168    -552.918     382.038
  C     -189.988    -550.504     382.574
  O     -189.820    -550.285     381.169
  C     -191.014    -549.518     383.149
  N     -189.289    -545.019     384.723
  C     -189.972    -545.327     383.563
  N     -190.027    -544.352     382.630
  N     -190.519    -546.495     383.332
  C     -190.295    -547.394     384.323
  C     -189.650    -547.200     385.528
  C     -189.083    -545.898     385.778
  O     -188.402    -545.600     386.759
  N     -189.547    -548.362     386.245
  C     -190.094    -549.270     385.468
  N     -190.526    -548.745     384.273
  O     -191.610    -552.336     387.997
  O     -193.467    -551.313     386.660
  H     -189.660    -549.337     381.033
  H     -193.047    -550.558     387.125
  H     -188.823    -544.121     384.805
  H     -190.177    -550.327     385.708
  H     -191.330    -548.805     382.386
  H     -188.985    -550.412     383.024
  H     -189.490    -543.502     382.703
  H     -190.168    -552.137     383.869
  H     -190.363    -544.601     381.703
  H     -192.678    -551.663     382.199
  H     -193.612    -552.200     384.549
  H     -192.763    -553.539     383.783
  P     -188.798    -553.725     382.132
  C     -189.518    -556.178     382.222
  O     -189.058    -555.065     382.965
  O     -187.888    -552.851     383.125
  O     -188.095    -553.924     380.826
  H     -186.951    -553.056     382.973
  H     -189.939    -556.914     382.914
  H     -188.677    -556.637     381.690
  H     -190.286    -555.873     381.506
  H     -193.991    -555.757     387.055
  H     -192.549    -555.262     387.908
  H     -192.526    -555.412     386.168

 3  4  5  6  7  8  9  10  11  12  23  26  30  31 0
 6-311+G(2d,p)
 ****
 33  35  36  37  38 0
 6-311+G(2d,p)
 ****
 1  2  13  14  15  16  17  18  19  20  21  22  24  25 0
 3-21G
 ****
 27  28  29  32  34  39  40  41  42  43  44  45  46  47  48  49 0
 3-21G
 ****


