%nproc=1
%NoSave
%Mem=1900MB
#P OB98/GEN NMR

erre ene a

0 1
  C       -6.650    -897.920    -376.332
  O       -5.861    -897.600    -375.213
  P       -4.367    -898.190    -375.062
  C       -3.515    -895.760    -375.262
  O       -3.483    -896.980    -374.503
  C       -3.625    -894.550    -374.337
  O       -4.816    -894.610    -373.546
  C       -2.477    -894.430    -373.338
  O       -1.303    -893.940    -373.961
  C       -3.090    -893.490    -372.290
  O       -2.966    -892.130    -372.715
  C       -4.583    -893.930    -372.301
  N       -4.892    -894.770    -371.163
  C       -5.658    -894.170    -370.139
  O       -5.967    -892.970    -370.233
  N       -5.978    -894.890    -369.025
  C       -5.576    -896.140    -368.917
  N       -5.916    -896.810    -367.800
  C       -4.747    -896.820    -369.959
  C       -4.450    -896.080    -371.030
  O       -3.850    -898.880    -376.270
  O       -4.496    -899.150    -373.763
  H       -2.005    -891.970    -372.875
  H       -4.988    -900.000    -374.004
  H       -4.424    -897.820    -369.823
  H       -3.860    -896.470    -371.842
  H       -5.227    -893.040    -372.299
  H       -2.606    -893.590    -371.323
  H       -2.286    -895.410    -372.885
  H       -3.664    -893.650    -374.965
  H       -6.459    -896.310    -367.104
  H       -4.394    -895.790    -375.912
  H       -5.624    -897.780    -367.613
  H       -2.622    -895.700    -375.899
  P        0.133    -894.280    -373.349
  C        0.209    -896.720    -374.182
  O        0.792    -895.450    -374.273
  O        0.162    -894.530    -371.871
  O        1.005    -892.990    -373.727
  H        1.539    -892.730    -372.928
  H        0.512    -897.300    -375.062
  H       -0.883    -896.640    -374.142
  H        0.566    -897.220    -373.286
  H       -7.600    -897.436    -376.249
  H       -6.792    -898.980    -376.377
  H       -6.158    -897.588    -377.222

 3  4  5  6  7  8  9  10  11  12  13  23  27  28  29  30  32 0
 6-311+G(2d,p)
 ****
 34  35 0
 6-311+G(2d,p)
 ****
 1  2  14  15  16  17  18  19  20  21  22  24  25  26 0
 3-21G
 ****
 31  33  36  37  38  39  40  41  42  43  44  45  46 0
 3-21G
 ****


