%nproc=1
%NoSave
%Mem=1900MB
#P OB98/GEN NMR

erre ene a

0 1
  C      466.593     313.912     578.947
  O      466.721     312.653     579.577
  P      465.910     312.416     580.940
  C      468.164     312.786     582.206
  O      466.768     313.086     582.116
  C      468.573     312.611     583.661
  O      467.975     313.647     584.469
  C      468.137     311.296     584.294
  O      468.942     310.221     583.851
  C      468.255     311.635     585.782
  O      469.642     311.561     586.174
  C      467.782     313.115     585.808
  N      464.387     312.620     589.627
  C      465.713     312.388     589.553
  N      466.557     312.520     588.510
  C      465.863     312.953     587.427
  C      464.524     313.210     587.326
  C      463.757     313.040     588.487
  N      462.400     313.270     588.542
  N      464.179     313.597     586.041
  C      465.324     313.603     585.390
  N      466.383     313.229     586.183
  O      466.072     310.844     581.208
  O      464.473     312.830     580.888
  H      469.702     311.886     587.095
  H      465.277     310.483     581.629
  H      466.179     312.052     590.495
  H      465.445     313.861     584.338
  H      468.353     313.733     586.498
  H      467.688     310.973     586.419
  H      467.083     311.090     584.048
  H      469.663     312.727     583.719
  H      468.742     313.617     581.762
  H      461.911     312.976     589.372
  H      461.905     313.431     587.669
  H      468.362     311.874     581.622
  P      468.397     308.732     584.062
  C      470.170     307.992     585.759
  O      468.818     308.364     585.571
  O      469.426     307.871     583.190
  O      466.934     308.559     583.738
  H      470.351     308.100     583.377
  H      470.330     307.827     586.826
  H      470.839     308.797     585.418
  H      470.387     307.071     585.219
  H      467.185     313.927     578.056
  H      466.931     314.679     579.612
  H      465.567     314.083     578.697

 3  4  5  6  7  8  9  10  11  12  22  25  29  30  31  32 0
 6-311+G(2d,p)
 ****
 33  36  37 0
 6-311+G(2d,p)
 ****
 1  2  13  14  15  16  17  18  19  20  21  23  24  26 0
 3-21G
 ****
 27  28  34  35  38  39  40  41  42  43  44  45  46  47  48 0
 3-21G
 ****


