%nproc=1
%NoSave
%Mem=1900MB
#P OB98/GEN NMR

erre ene a

0 1
  C     -195.627     -66.359    -110.580
  O     -194.877     -66.740    -111.715
  H     -196.687     -66.337    -110.849
  H     -195.328     -65.360    -110.249
  H     -195.482     -67.078    -109.768
  P     -193.288     -66.874    -111.520
  C     -193.445     -69.450    -111.184
  O     -193.053     -68.194    -110.638
  C     -192.355     -70.486    -110.925
  O     -192.010     -70.480    -109.520
  C     -192.766     -71.921    -111.239
  O     -192.702     -72.200    -112.627
  C     -191.757     -72.706    -110.414
  O     -190.510     -72.854    -111.105
  C     -191.568     -71.815    -109.179
  N     -191.217     -74.582    -104.910
  C     -190.292     -74.209    -105.824
  N     -190.467     -73.451    -106.930
  C     -191.746     -73.062    -107.039
  C     -192.800     -73.370    -106.192
  C     -192.495     -74.169    -105.075
  N     -193.440     -74.577    -104.165
  N     -193.977     -72.824    -106.663
  C     -193.645     -72.192    -107.770
  N     -192.307     -72.306    -108.033
  O     -192.952     -65.677    -110.509
  O     -192.483     -66.792    -112.774
  H     -190.122     -71.960    -111.176
  H     -192.671     -64.892    -111.015
  H     -189.283     -74.569    -105.648
  H     -194.328     -71.651    -108.414
  H     -190.516     -71.738    -108.881
  H     -192.123     -73.710    -110.187
  H     -193.774     -72.120    -110.851
  H     -191.460     -70.204    -111.497
  H     -193.592     -69.342    -112.265
  H     -194.387     -69.757    -110.721
  H     -193.154     -75.167    -103.399
  H     -194.417     -74.362    -104.337
  P     -193.554     -73.427    -113.200
  C     -195.838     -72.206    -112.958
  O     -195.035     -73.319    -112.593
  O     -192.923     -74.694    -112.450
  O     -193.505     -73.576    -114.687
  H     -192.303     -75.161    -113.035
  H     -196.790     -72.279    -112.474
  H     -195.977     -72.199    -114.019
  H     -195.353     -71.302    -112.656

 6  7  8  9  10  11  12  13  14  15  25  28  32  33  34  35 0
 6-311+G(2d,p)
 ****
 36  37  40 0
 6-311+G(2d,p)
 ****
 1  2  3  4  5  16  17  18  19  20  21  22  23  24 0
 3-21G
 ****
 26  27  29  30  31  38  39 41  42  43  44  45  46  47  48 0
 3-21G
 ****


