%nproc=1
%NoSave
%Mem=1900MB
#P OB98/GEN NMR

erre ene a

0 1
  C      171.812    -602.799    -423.599
  O      171.965    -604.172    -423.306
  H      171.633    -602.689    -424.673
  H      172.727    -602.261    -423.340
  H      170.961    -602.377    -423.055
  P      172.032    -604.571    -421.749
  C      170.065    -606.263    -421.705
  O      170.538    -604.983    -421.320
  C      168.583    -606.404    -421.353
  O      167.800    -605.441    -422.100
  C      167.994    -607.770    -421.669
  O      168.259    -608.715    -420.639
  C      166.512    -607.430    -421.727
  O      165.989    -607.286    -420.390
  C      166.529    -606.070    -422.440
  N      163.582    -607.541    -426.291
  C      163.374    -607.633    -424.928
  N      162.216    -608.204    -424.534
  N      164.223    -607.205    -424.028
  C      165.341    -606.661    -424.568
  C      165.662    -606.515    -425.901
  C      164.709    -606.984    -426.884
  O      164.836    -606.908    -428.101
  N      166.884    -605.913    -426.061
  C      167.305    -605.713    -424.823
  N      166.409    -606.156    -423.882
  O      172.250    -603.165    -421.014
  O      173.100    -605.544    -421.385
  H      165.020    -607.222    -420.474
  H      172.832    -603.297    -420.244
  H      162.901    -607.896    -426.938
  H      168.249    -605.247    -424.568
  H      165.730    -605.406    -422.087
  H      165.918    -608.203    -422.217
  H      161.543    -608.600    -425.169
  H      168.320    -608.137    -422.652
  H      162.021    -608.252    -423.541
  H      168.463    -606.168    -420.290
  H      170.636    -607.032    -421.168
  H      170.212    -606.391    -422.777
  P      169.377    -609.835    -420.926
  C      171.042    -609.482    -418.967
  O      170.744    -609.244    -420.337
  O      169.590    -609.734    -422.514
  O      169.016    -611.212    -420.497
  H      169.948    -610.575    -422.857
  H      171.980    -609.029    -418.722
  H      171.098    -610.536    -418.792
  H      170.272    -609.060    -418.356

 6  7  8  9  10  11  12  13  14  15  26  29  33  34 0
 6-311+G(2d,p)
 ****
 36  38  39  40  41 0
 6-311+G(2d,p)
 ****
 1  2  3  4  5  16  17  18  19  20  21  22  23  24  25 0
 3-21G
 ****
 27  28  30  31  32  35  37  42  43  44  45  46  47 0
 3-21G
 ****
 48  49 0
 3-21G
 ****


