%nproc=1
%NoSave
%Mem=1900MB
#P OB98/GEN NMR

erre ene a

0 1
  C      -96.400     155.930      89.494
  O      -95.158     155.504      90.022
  H      -96.309     156.972      89.181
  H      -97.178     155.858      90.259
  H      -96.669     155.321      88.627
  P      -95.078     153.981      90.519
  C      -93.845     152.930      88.500
  O      -95.087     153.122      89.165
  C      -93.464     151.452      88.497
  O      -94.447     150.676      87.791
  C      -92.133     151.148      87.822
  O      -91.049     151.410      88.698
  C      -92.288     149.660      87.546
  O      -92.018     148.911      88.747
  C      -93.778     149.541      87.179
  N      -92.884     147.240      82.679
  C      -92.306     147.097      83.890
  N      -92.564     147.772      85.030
  C      -93.535     148.678      84.838
  C      -94.217     148.938      83.659
  C      -93.865     148.163      82.541
  N      -94.465     148.305      81.309
  N      -95.145     149.941      83.840
  C      -95.062     150.245      85.120
  N      -94.077     149.535      85.759
  O      -96.067     153.587      91.560
  O      -93.543     153.889      90.971
  H      -91.116     149.140      89.040
  H      -92.977     154.388      90.357
  H      -91.532     146.337      83.953
  H      -95.699     150.956      85.633
  H      -94.226     148.632      87.595
  H      -91.591     149.304      86.786
  H      -92.036     151.680      86.870
  H      -93.463     151.104      89.539
  H      -93.058     153.516      88.985
  H      -94.037     147.834      80.527
  H      -95.104     149.075      81.179
  H      -93.963     153.291      87.474
  P      -89.577     151.677      88.121
  C      -90.075     154.191      88.324
  O      -89.599     153.149      87.480
  O      -89.052     150.616      87.219
  O      -88.664     151.862      89.419
  H      -87.790     151.451      89.279
  H      -90.045     155.120      87.795
  H      -89.456     154.256      89.194
  H      -91.082     153.980      88.617

 6  7  8  9  10  11  12  13  14  15  25  28  32  33  34  35 0
 6-311+G(2d,p)
 ****
 36  39  40 0
 6-311+G(2d,p)
 ****
 1  2  3  4  5  16  17  18  19  20  21  22  23  24 0
 3-21G
 ****
 26  27  29  30  31  37  38  41  42  43  44  45  46  47 0
 3-21G
 ****
 48 0
 3-21G
 ****


