%nproc=1
%NoSave
%Mem=1900MB
#P OB98/GEN NMR

erre ene a

0 1
  C       60.329     368.761    -323.018
  O       60.260     368.243    -321.709
  H       59.494     368.360    -323.601
  H       61.265     368.453    -323.487
  H       60.262     369.854    -323.020
  P       61.056     368.989    -320.540
  C       63.421     369.994    -320.284
  O       62.613     369.022    -320.935
  C       64.796     370.121    -320.938
  O       64.643     370.477    -322.330
  C       65.653     371.211    -320.296
  O       66.408     370.780    -319.171
  C       66.573     371.610    -321.449
  O       67.754     370.788    -321.487
  C       65.710     371.362    -322.691
  N       66.676     375.813    -325.017
  C       67.567     374.928    -324.439
  N       68.864     375.295    -324.455
  N       67.198     373.800    -323.887
  C       65.859     373.614    -323.860
  C       64.884     374.432    -324.381
  C       65.296     375.644    -325.054
  O       64.552     376.454    -325.596
  N       63.623     373.940    -324.127
  C       63.844     372.873    -323.380
  N       65.182     372.594    -323.261
  O       61.026     367.934    -319.334
  O       60.474     370.302    -320.103
  H       67.492     369.896    -321.787
  H       61.016     368.409    -318.482
  H       67.017     376.654    -325.450
  H       63.071     372.246    -322.942
  H       66.281     370.866    -323.486
  H       66.911     372.645    -321.340
  H       69.190     376.192    -324.792
  H       65.045     372.081    -320.031
  H       69.522     374.770    -323.881
  H       65.300     369.143    -320.910
  H       63.524     369.669    -319.247
  H       62.910     370.962    -320.271
  P       66.764     371.795    -317.990
  C       67.801     374.200    -318.200
  O       67.858     372.824    -318.519
  O       67.587     370.874    -316.963
  O       65.592     372.457    -317.331
  H       67.009     370.573    -316.239
  H       68.627     374.706    -318.655
  H       67.849     374.322    -317.138
  H       66.884     374.613    -318.566

 6  7  8  9  10  11  12  13  14  15  26  29  33  34 0
 6-311+G(2d,p)
 ****
 36  38  39  40  41 0
 6-311+G(2d,p)
 ****
 1  2  3  4  5  16  17  18  19  20  21  22  23  24  25 0
 3-21G
 ****
 27  28  30  31  32  35  37  42  43  44  45  46  47 0
 3-21G
 ****
 48  49 0
 3-21G
 ****


