%nproc=1
%NoSave
%Mem=1900MB
#P OB98/GEN NMR

erre ene a

0 1
  C     -177.951     837.880    -642.731
  O     -177.045     837.318    -643.679
  P     -175.513     837.761    -643.640
  C     -174.518     835.412    -643.176
  O     -174.717     836.745    -642.665
  C     -174.038     834.484    -642.053
  O     -175.071     834.269    -641.053
  C     -173.667     833.094    -642.547
  O     -172.428     833.119    -643.228
  C     -173.688     832.297    -641.254
  O     -172.464     832.457    -640.521
  C     -174.858     832.967    -640.476
  N     -176.069     832.169    -640.467
  C     -176.250     831.330    -639.360
  O     -175.373     831.248    -638.509
  N     -177.401     830.570    -639.291
  C     -178.288     830.642    -640.233
  N     -179.399     829.892    -640.107
  C     -178.137     831.527    -641.414
  C     -177.017     832.263    -641.470
  O     -175.252     839.203    -643.368
  O     -174.980     837.333    -645.093
  H     -171.744     832.157    -641.106
  H     -174.260     837.945    -645.354
  H     -178.931     831.572    -642.157
  H     -176.825     832.927    -642.291
  H     -174.563     833.144    -639.415
  H     -173.830     831.230    -641.430
  H     -174.463     832.720    -643.219
  H     -173.158     834.953    -641.563
  H     -179.473     829.289    -639.283
  H     -173.767     835.441    -643.974
  H     -180.186     829.929    -640.751
  H     -175.458     835.060    -643.615
  P     -172.437     833.536    -644.774
  C     -170.947     835.623    -644.370
  O     -172.166     835.120    -644.865
  O     -173.981     833.390    -645.206
  O     -171.562     832.680    -645.666
  H     -174.052     833.084    -646.108
  H     -170.802     836.624    -644.780
  H     -170.108     834.988    -644.647
  H     -171.002     835.711    -643.274
  H     -178.930     837.480    -642.893
  H     -177.976     838.943    -642.848
  H     -177.626     837.638    -641.741

 3  4  5  6  7  8  9  10  11  12  13  23  27  28  29  30  32 0
 6-311+G(2d,p)
 ****
 34  35 0
 6-311+G(2d,p)
 ****
 1  2  14  15  16  17  18  19  20  21  22  24  25  26 0
 3-21G
 ****
 31  33  36  37  38  39  40  41  42  43  44  45  46 0
 3-21G
 ****


