%nproc=1
%NoSave
%Mem=1900MB
#P OB98/GEN NMR

erre ene a

0 1
  C     -342.958    -783.784    -719.432
  O     -341.648    -784.312    -719.379
  H     -343.586    -784.342    -718.738
  H     -343.369    -783.896    -720.440
  H     -342.961    -782.730    -719.144
  P     -340.485    -783.592    -720.215
  C     -339.051    -782.722    -718.257
  O     -339.949    -782.382    -719.307
  C     -337.801    -781.853    -718.341
  O     -337.177    -782.003    -719.640
  C     -338.068    -780.362    -718.178
  O     -338.306    -780.040    -716.822
  C     -336.791    -779.780    -718.770
  O     -335.711    -779.848    -717.828
  C     -336.529    -780.747    -719.951
  N     -337.006    -780.213    -721.231
  C     -336.059    -779.577    -722.024
  O     -334.886    -779.443    -721.695
  N     -336.530    -779.045    -723.194
  C     -337.831    -779.015    -723.601
  O     -338.233    -778.341    -724.542
  C     -338.769    -779.768    -722.760
  C     -338.330    -780.311    -721.627
  O     -340.826    -783.224    -721.619
  O     -339.276    -784.641    -720.161
  H     -339.234    -785.128    -721.000
  H     -334.974    -779.325    -718.208
  H     -335.857    -778.541    -723.755
  H     -339.804    -779.821    -723.080
  H     -339.015    -780.850    -720.976
  H     -335.461    -780.951    -720.050
  H     -336.903    -778.736    -719.057
  H     -338.916    -780.060    -718.813
  H     -337.085    -782.206    -717.584
  H     -338.776    -783.777    -718.361
  H     -339.553    -782.581    -717.294
  P     -339.199    -778.773    -716.415
  C     -341.550    -779.788    -716.229
  O     -340.671    -778.994    -717.016
  O     -338.595    -777.447    -716.727
  O     -339.426    -778.948    -714.840
  H     -339.154    -778.121    -714.386
  H     -342.496    -779.868    -716.722
  H     -341.685    -779.329    -715.272
  H     -341.131    -780.764    -716.101

 6  7  8  9  10  11  12  13  14  15  16  27  31  32  33  34  35 0
 6-311+G(2d,p)
 ****
 36  37 0
 6-311+G(2d,p)
 ****
 1  2  3  4  5  17  18  19  20  21  22  23  24  25 0
 3-21G
 ****
 26  28  29  30  38  39  40  41  42  43  44  45 0
 3-21G
 ****


