%nproc=1
%NoSave
%Mem=1900MB
#P OB98/GEN NMR

erre ene a

0 1
  C      -33.528    -236.209    -336.857
  O      -34.725    -236.011    -337.609
  P      -35.937    -237.043    -337.451
  C      -37.311    -236.152    -335.447
  O      -37.216    -236.276    -336.862
  C      -38.382    -235.121    -335.080
  O      -38.063    -233.812    -335.609
  C      -39.749    -235.456    -335.666
  O      -40.417    -236.575    -335.128
  C      -40.467    -234.116    -335.594
  O      -41.021    -233.883    -334.301
  C      -39.307    -233.126    -335.872
  N      -39.341    -232.590    -337.233
  C      -39.857    -231.307    -337.372
  O      -40.310    -230.654    -336.430
  N      -39.870    -230.805    -338.644
  C      -39.465    -231.457    -339.770
  O      -39.520    -230.966    -340.890
  C      -38.947    -232.821    -339.567
  C      -38.911    -233.316    -338.328
  O      -35.607    -238.334    -336.783
  O      -36.375    -237.307    -338.978
  H      -40.280    -233.807    -333.674
  H      -36.573    -238.258    -339.068
  H      -40.237    -229.869    -338.763
  H      -38.619    -233.370    -340.434
  H      -38.534    -234.320    -338.154
  H      -39.351    -232.278    -335.178
  H      -41.289    -234.061    -336.315
  H      -39.609    -235.680    -336.735
  H      -38.425    -235.036    -333.991
  H      -36.343    -235.854    -335.038
  H      -37.540    -237.135    -335.018
  P      -41.353    -237.544    -336.001
  C      -40.019    -239.762    -336.146
  O      -41.082    -239.057    -335.543
  O      -41.437    -237.277    -337.467
  O      -42.796    -237.260    -335.346
  H      -43.472    -237.341    -336.050
  H      -39.994    -240.775    -335.728
  H      -39.067    -239.272    -335.936
  H      -40.173    -239.835    -337.225
  H      -32.830    -235.431    -337.086
  H      -33.100    -237.157    -337.110
  H      -33.756    -236.188    -335.812

 3  4  5  6  7  8  9  10  11  12  13  23  28  29  30  31  32 0
 6-311+G(2d,p)
 ****
 33  34 0
 6-311+G(2d,p)
 ****
 1  2  14  15  16  17  18  19  20  21  22  24  25  26  27 0
 3-21G
 ****
 35  36  37  38  39  40  41  42  43  44  45 0
 3-21G
 ****


