%nproc=1
%NoSave
%Mem=1900MB
#P OB98/GEN NMR

erre ene a

0 1
  C      -42.279      41.360    -388.440
  O      -43.341      40.427    -388.522
  H      -41.339      40.835    -388.621
  H      -42.249      41.806    -387.442
  H      -42.404      42.139    -389.197
  P      -44.821      41.007    -388.305
  C      -45.402      41.258    -390.818
  O      -45.081      41.918    -389.602
  C      -45.959      42.252    -391.837
  O      -47.085      42.963    -391.292
  C      -44.963      43.326    -392.268
  O      -44.079      42.827    -393.258
  C      -45.906      44.377    -392.831
  O      -46.310      44.003    -394.166
  C      -47.113      44.294    -391.876
  N      -49.086      48.749    -390.267
  C      -49.154      48.119    -391.458
  N      -48.568      46.957    -391.826
  C      -47.851      46.440    -390.815
  C      -47.690      46.974    -389.543
  C      -48.360      48.180    -389.275
  N      -48.294      48.818    -388.054
  N      -46.886      46.165    -388.772
  C      -46.602      45.133    -389.549
  N      -47.137      45.271    -390.805
  O      -45.079      41.643    -386.985
  O      -45.708      39.709    -388.622
  H      -46.842      44.732    -394.527
  H      -45.323      39.204    -389.361
  H      -49.756      48.607    -392.218
  H      -46.041      44.263    -389.243
  H      -48.062      44.393    -392.414
  H      -45.435      45.359    -392.905
  H      -44.429      43.746    -391.411
  H      -46.320      41.681    -392.702
  H      -46.138      40.465    -390.636
  H      -48.659      49.757    -388.003
  H      -47.657      48.456    -387.363
  H      -44.490      40.799    -391.196
  P      -42.637      43.492    -393.476
  C      -41.128      41.979    -392.043
  O      -41.803      43.230    -392.127
  O      -42.655      44.913    -393.921
  O      -41.910      42.544    -394.539
  H      -41.378      43.076    -395.159
  H      -40.610      41.915    -391.109
  H      -40.426      41.898    -392.846
  H      -41.841      41.184    -392.110

 6  7  8  9  10  11  12  13  14  15  25  28  32  33  34  35 0
 6-311+G(2d,p)
 ****
 36  39  40 0
 6-311+G(2d,p)
 ****
 1  2  3  4  5  16  17  18  19  20  21  22  23  24 0
 3-21G
 ****
 26  27  29  30  31  37  38  41  42  43  44  45  46  47 0
 3-21G
 ****
 48 0
 3-21G
 ****


