%nproc=1
%NoSave
%Mem=1900MB
#P OB98/GEN NMR

erre ene a

0 1
  C     -658.068    -822.402    -657.306
  O     -659.015    -823.314    -656.786
  H     -658.568    -821.460    -657.518
  H     -657.644    -822.805    -658.239
  H     -657.265    -822.232    -656.575
  P     -658.460    -824.716    -656.233
  C     -659.966    -824.896    -654.092
  O     -658.680    -824.655    -654.642
  C     -660.024    -824.383    -652.640
  O     -659.059    -825.138    -651.850
  C     -659.705    -822.897    -652.496
  O     -660.529    -822.352    -651.453
  C     -658.242    -822.880    -652.041
  O     -657.926    -821.693    -651.338
  C     -658.180    -824.176    -651.211
  N     -656.806    -824.703    -651.099
  C     -656.067    -824.305    -650.001
  O     -656.555    -823.502    -649.179
  N     -654.770    -824.744    -649.862
  C     -654.250    -825.460    -650.806
  N     -652.967    -825.849    -650.632
  C     -654.983    -825.881    -652.021
  C     -656.248    -825.477    -652.096
  O     -656.879    -824.526    -656.402
  O     -659.031    -825.914    -656.918
  H     -658.504    -821.655    -650.552
  H     -656.565    -823.644    -656.159
  H     -654.498    -826.469    -652.787
  H     -656.867    -825.739    -652.953
  H     -658.547    -824.010    -650.191
  H     -657.589    -822.961    -652.906
  H     -659.838    -822.327    -653.414
  H     -661.008    -824.631    -652.232
  H     -652.480    -825.542    -649.791
  H     -660.192    -825.968    -654.100
  H     -652.432    -826.384    -651.317
  H     -660.700    -824.375    -654.705
  P     -661.643    -821.258    -651.865
  C     -663.746    -822.132    -650.651
  O     -663.078    -821.963    -651.896
  O     -661.323    -820.408    -653.030
  O     -661.743    -820.366    -650.513
  H     -661.842    -819.431    -650.794
  H     -664.688    -822.613    -650.814
  H     -663.907    -821.175    -650.200
  H     -663.145    -822.735    -650.003

 6  7  8  9  10  11  12  13  14  15  16  26  30  31  32  33  35 0
 6-311+G(2d,p)
 ****
 37  38 0
 6-311+G(2d,p)
 ****
 1  2  3  4  5  17  18  19  20  21  22  23  24  25 0
 3-21G
 ****
 27  28  29  34  36  39  40  41  42  43  44  45  46 0
 3-21G
 ****


