%nproc=1
%NoSave
%Mem=1900MB
#P OB98/GEN NMR

erre ene a

0 1
  C      193.608      30.568     -79.977
  O      194.848      29.889     -80.000
  H      192.811      29.850     -80.181
  H      193.593      31.339     -80.751
  H      193.437      31.019     -78.996
  P      196.152      30.749     -79.635
  C      195.814      30.703     -77.064
  O      196.606      30.280     -78.164
  C      196.533      30.429     -75.744
  O      195.761      31.019     -74.655
  C      196.718      28.939     -75.421
  O      197.970      28.784     -74.741
  C      195.602      28.668     -74.425
  O      195.853      27.518     -73.621
  C      195.596      29.990     -73.660
  N      193.129      28.483     -69.543
  C      194.382      28.143     -70.012
  N      195.092      27.264     -69.271
  N      194.897      28.622     -71.112
  C      194.092      29.515     -71.736
  C      192.831      29.931     -71.379
  C      192.261      29.373     -70.171
  O      191.150      29.620     -69.716
  N      192.332      30.829     -72.290
  C      193.288      30.954     -73.193
  N      194.374      30.177     -72.900
  O      195.551      32.212     -79.396
  O      197.230      30.747     -80.665
  H      195.063      27.363     -73.063
  H      195.599      32.736     -80.218
  H      192.774      28.074     -68.696
  H      193.243      31.584     -74.071
  H      196.427      30.064     -72.949
  H      194.652      28.514     -74.953
  H      194.779      26.889     -68.390
  H      196.685      28.280     -76.294
  H      196.031      27.036     -69.576
  H      197.499      30.947     -75.760
  H      194.866      30.153     -77.076
  H      195.604      31.773     -77.160
  P      199.191      28.137     -75.551
  C      199.744      30.265     -76.939
  O      200.186      29.318     -75.979
  O      198.516      27.722     -76.944
  O      199.824      26.966     -74.875
  H      198.993      26.965     -77.330
  H      200.518      30.983     -77.115
  H      198.872      30.764     -76.572
  H      199.509      29.762     -77.854

 6  7  8  9  10  11  12  13  14  15  26  29  33  34 0
 6-311+G(2d,p)
 ****
 36  38  39  40  41 0
 6-311+G(2d,p)
 ****
 1  2  3  4  5  16  17  18  19  20  21  22  23  24  25 0
 3-21G
 ****
 27  28  30  31  32  35  37  42  43  44  45  46  47 0
 3-21G
 ****
 48  49 0
 3-21G
 ****


