%nproc=1
%NoSave
%Mem=1900MB
#P OB98/GEN NMR

erre ene a

0 1
  C      -41.378     207.926      -2.574
  O      -41.764     209.234      -3.005
  P      -40.785     209.970      -4.038
  C      -40.735     212.567      -4.087
  O      -41.440     211.381      -4.430
  C      -41.719     213.663      -3.680
  O      -42.625     213.996      -4.755
  C      -42.613     213.269      -2.511
  O      -41.898     213.310      -1.287
  C      -43.720     214.311      -2.634
  O      -43.294     215.566      -2.077
  C      -43.866     214.444      -4.159
  N      -46.520     213.340      -8.391
  C      -45.468     214.161      -8.173
  N      -44.820     214.402      -7.014
  C      -45.351     213.681      -6.013
  C      -46.418     212.801      -6.084
  C      -47.019     212.641      -7.345
  N      -48.098     211.817      -7.564
  N      -46.678     212.249      -4.847
  C      -45.798     212.804      -4.038
  N      -44.967     213.668      -4.699
  O      -40.932     209.099      -5.372
  O      -39.366     210.037      -3.576
  H      -42.569     215.903      -2.641
  H      -40.120     208.583      -5.526
  H      -45.102     214.697      -9.044
  H      -45.725     212.615      -2.976
  H      -44.021     215.482      -4.471
  H      -44.641     214.020      -2.120
  H      -43.023     212.264      -2.669
  H      -41.142     214.559      -3.421
  H      -40.133     212.906      -4.934
  H      -48.518     211.820      -8.480
  H      -48.532     211.358      -6.776
  H      -40.038     212.339      -3.277
  P      -42.225     212.183      -0.194
  C      -41.898     213.671       1.874
  O      -41.356     212.630       1.083
  O      -41.403     210.937      -0.759
  O      -43.676     211.951       0.058
  H      -40.505     211.191      -1.034
  H      -41.230     213.850       2.720
  H      -42.883     213.385       2.253
  H      -41.977     214.588       1.285
  H      -42.109     207.545      -1.891
  H      -40.427     207.977      -2.086
  H      -41.309     207.277      -3.422

 3  4  5  6  7  8  9  10  11  12  22  25  29  30  31  32 0
 6-311+G(2d,p)
 ****
 33  36  37 0
 6-311+G(2d,p)
 ****
 1  2  13  14  15  16  17  18  19  20  21  23  24  26 0
 3-21G
 ****
 27  28  34  35  38  39  40  41  42  43  44  45  46  47  48 0
 3-21G
 ****


