%nproc=1
%NoSave
%Mem=1900MB
#P OB98/GEN NMR

erre ene a

0 1
  C        8.548       5.623      -8.127
  O        9.946       5.596      -7.922
  P       10.892       6.742      -8.513
  C       11.398       5.359     -10.609
  O       10.913       6.597     -10.108
  C       11.393       5.336     -12.136
  O       10.024       5.382     -12.615
  C       12.157       6.498     -12.783
  O       12.821       5.978     -13.940
  C       11.050       7.452     -13.188
  O       11.450       8.339     -14.223
  C        9.944       6.461     -13.567
  N        8.625       7.073     -13.567
  C        7.992       7.210     -14.804
  O        8.599       6.943     -15.842
  N        6.696       7.660     -14.830
  C        6.154       8.112     -13.741
  N        4.847       8.484     -13.797
  C        6.887       8.213     -12.464
  C        8.088       7.642     -12.436
  O       12.242       6.836      -7.882
  O       10.062       8.093      -8.286
  H       10.623       8.736      -7.809
  H       12.351       8.670     -14.026
  H        6.439       8.711     -11.618
  H        8.693       7.639     -11.537
  H       10.135       6.032     -14.558
  H       10.747       8.053     -12.323
  H       12.896       6.946     -12.113
  H       11.818       4.379     -12.464
  H        4.366       8.362     -14.679
  H       10.747       4.564     -10.240
  H        4.265       8.541     -12.963
  H       12.406       5.171     -10.224
  P       14.060       6.803     -14.544
  C       12.445       7.671     -16.379
  O       13.469       7.978     -15.458
  O       14.625       5.777     -15.643
  O       15.146       7.169     -13.587
  H       15.570       5.964     -15.794
  H       12.215       8.569     -16.958
  H       11.541       7.356     -15.851
  H       12.767       6.884     -17.066
  H        8.102       4.773      -7.654
  H        8.341       5.597      -9.176
  H        8.143       6.519      -7.705

 3  4  5  6  7  8  9  10  11  12  13  24  27  28  29  30  32 0
 6-311+G(2d,p)
 ****
 34  35 0
 6-311+G(2d,p)
 ****
 1  2  14  15  16  17  18  19  20  21  22  23  25  26 0
 3-21G
 ****
 31  33  36  37  38  39  40  41  42  43  44  45  46 0
 3-21G
 ****


