%nproc=1
%NoSave
%Mem=1900MB
#P OB98/GEN NMR

erre ene a

0 1
  C     -524.588     -25.904    -406.687
  O     -523.359     -26.204    -407.330
  P     -522.218     -26.887    -406.421
  C     -520.403     -25.891    -408.024
  O     -520.872     -26.055    -406.693
  C     -519.530     -24.642    -408.115
  O     -520.334     -23.456    -408.033
  C     -518.489     -24.537    -407.000
  O     -517.357     -25.327    -407.294
  C     -518.211     -23.031    -406.995
  O     -517.283     -22.679    -408.041
  C     -519.604     -22.448    -407.277
  N     -520.109     -19.000    -403.619
  C     -519.137     -19.129    -404.578
  N     -518.180     -18.177    -404.605
  N     -519.097     -20.104    -405.454
  C     -520.112     -20.994    -405.302
  C     -521.124     -20.978    -404.378
  C     -521.184     -19.868    -403.451
  O     -522.080     -19.650    -402.646
  N     -521.949     -22.064    -404.518
  C     -521.450     -22.710    -405.558
  N     -520.348     -22.094    -406.078
  O     -521.972     -28.285    -407.152
  O     -522.562     -27.038    -404.974
  H     -517.073     -21.731    -407.981
  H     -522.453     -28.999    -406.693
  H     -520.096     -18.214    -402.988
  H     -521.868     -23.609    -405.976
  H     -519.550     -21.549    -407.901
  H     -517.759     -22.700    -406.059
  H     -518.127     -17.409    -403.951
  H     -518.928     -24.827    -406.040
  H     -517.452     -18.260    -405.304
  H     -519.037     -24.648    -409.100
  H     -521.271     -25.774    -408.693
  H     -519.846     -26.788    -408.320
  P     -516.615     -26.050    -406.073
  C     -514.483     -26.513    -407.477
  O     -515.043     -25.912    -406.326
  O     -516.919     -27.603    -406.323
  O     -517.083     -25.616    -404.728
  H     -517.035     -28.052    -405.464
  H     -513.602     -25.940    -407.786
  H     -515.196     -26.550    -408.304
  H     -514.165     -27.534    -407.231
  H     -525.259     -25.457    -407.391
  H     -524.412     -25.223    -405.880
  H     -525.020     -26.805    -406.305

 3  4  5  6  7  8  9  10  11  12  23  26  30  31 0
 6-311+G(2d,p)
 ****
 33  35  36  37  38 0
 6-311+G(2d,p)
 ****
 1  2  13  14  15  16  17  18  19  20  21  22  24  25 0
 3-21G
 ****
 27  28  29  32  34  39  40  41  42  43  44  45  46  47  48  49 0
 3-21G
 ****


