%nproc=1
%NoSave
%Mem=1900MB
#P OB98/GEN NMR

erre ene a

0 1
  C      190.612    -404.375    -896.600
  O      191.930    -404.550    -897.090
  H      190.414    -405.153    -895.850
  H      189.897    -404.486    -897.420
  H      190.500    -403.394    -896.140
  P      192.460    -403.453    -898.140
  C      193.784    -402.236    -896.280
  O      192.790    -402.123    -897.300
  C      193.805    -400.952    -895.440
  O      194.314    -399.844    -896.260
  C      192.430    -400.512    -894.900
  O      192.626    -399.929    -893.600
  C      192.017    -399.419    -895.860
  O      191.037    -398.533    -895.310
  C      193.377    -398.754    -896.120
  N      192.711    -394.038    -897.730
  C      192.711    -394.563    -896.450
  N      192.509    -393.680    -895.440
  N      192.907    -395.821    -896.180
  C      193.125    -396.571    -897.290
  C      193.143    -396.189    -898.600
  C      192.908    -394.783    -898.890
  O      192.861    -394.275    -900.000
  N      193.381    -397.256    -899.430
  C      193.513    -398.289    -898.620
  N      193.365    -397.926    -897.300
  O      191.127    -403.069    -898.950
  O      193.551    -403.917    -899.060
  H      190.977    -397.757    -895.910
  H      191.054    -403.615    -899.750
  H      192.544    -393.063    -897.880
  H      193.704    -399.310    -898.920
  H      193.695    -398.129    -895.290
  H      191.609    -399.852    -896.780
  H      192.396    -392.689    -895.560
  H      191.696    -401.326    -894.830
  H      192.544    -394.041    -894.490
  H      194.522    -401.086    -894.620
  H      194.761    -402.369    -896.740
  H      193.567    -403.091    -895.650
  P      191.604    -400.325    -892.430
  C      193.448    -401.480    -891.010
  O      192.191    -401.600    -891.670
  O      190.356    -400.941    -893.250
  O      191.194    -399.181    -891.570
  H      189.538    -400.815    -892.730
  H      193.701    -402.413    -890.552
  H      193.386    -400.720    -890.259
  H      194.201    -401.217    -891.723

 6  7  8  9  10  11  12  13  14  15  26  29  33  34 0
 6-311+G(2d,p)
 ****
 36  38  39  40  41 0
 6-311+G(2d,p)
 ****
 1  2  3  4  5  16  17  18  19  20  21  22  23  24  25 0
 3-21G
 ****
 27  28  30  31  32  35  37  42  43  44  45  46  47 0
 3-21G
 ****
 48  49 0
 3-21G
 ****


