%nproc=1
%NoSave
%Mem=1900MB
#P OB98/GEN NMR

erre ene a

0 1
  C     -514.210    -153.082     258.108
  O     -514.836    -153.615     259.277
  P     -515.762    -154.911     259.055
  C     -517.936    -153.506     258.929
  O     -517.093    -154.447     258.284
  C     -519.414    -153.891     258.809
  O     -519.700    -155.109     259.555
  C     -520.378    -152.821     259.324
  O     -521.550    -152.872     258.500
  C     -520.733    -153.321     260.715
  O     -521.926    -152.724     261.203
  C     -520.812    -154.820     260.428
  N     -523.574    -157.528     263.686
  C     -523.970    -156.726     262.630
  N     -525.287    -156.686     262.377
  N     -523.139    -156.034     261.890
  C     -521.838    -156.211     262.237
  C     -521.317    -156.983     263.247
  C     -522.246    -157.721     264.083
  O     -521.952    -158.441     265.024
  N     -519.943    -156.922     263.277
  C     -519.648    -156.059     262.316
  N     -520.756    -155.645     261.623
  O     -516.270    -155.256     260.532
  O     -515.037    -156.061     258.437
  H     -521.712    -151.799     261.451
  H     -515.752    -155.988     260.905
  H     -524.253    -158.024     264.232
  H     -518.656    -155.729     262.064
  H     -521.744    -155.103     259.906
  H     -519.920    -153.100     261.417
  H     -525.980    -157.233     262.874
  H     -519.964    -151.802     259.337
  H     -525.609    -156.141     261.576
  H     -519.623    -154.098     257.754
  H     -517.788    -152.508     258.496
  H     -517.631    -153.423     259.982
  P     -521.381    -152.539     256.936
  C     -522.256    -150.119     257.286
  O     -521.219    -150.955     256.806
  O     -522.850    -152.809     256.357
  O     -520.362    -153.369     256.231
  H     -522.784    -153.226     255.482
  H     -521.830    -149.153     257.557
  H     -522.747    -150.561     258.163
  H     -523.000    -149.982     256.495
  H     -513.623    -152.228     258.375
  H     -514.960    -152.792     257.402
  H     -513.578    -153.826     257.671

 3  4  5  6  7  8  9  10  11  12  23  26  30  31 0
 6-311+G(2d,p)
 ****
 33  35  36  37  38 0
 6-311+G(2d,p)
 ****
 1  2  13  14  15  16  17  18  19  20  21  22  24  25 0
 3-21G
 ****
 27  28  29  32  34  39  40  41  42  43  44  45  46  47  48  49 0
 3-21G
 ****


