%nproc=1
%NoSave
%Mem=1900MB
#P OB98/GEN NMR

erre ene a

0 1
  C     -160.715    -265.693     131.515
  O     -160.476    -267.069     131.723
  H     -160.141    -265.336     130.659
  H     -161.779    -265.545     131.313
  H     -160.445    -265.123     132.409
  P     -158.957    -267.506     132.000
  C     -159.390    -268.660     134.281
  O     -159.009    -268.823     132.921
  C     -160.428    -269.713     134.660
  O     -161.658    -269.419     133.950
  C     -160.024    -271.161     134.334
  O     -160.042    -271.961     135.519
  C     -161.116    -271.658     133.400
  O     -161.509    -273.005     133.661
  C     -162.262    -270.682     133.642
  N     -165.555    -273.224     130.702
  C     -165.157    -273.424     131.976
  N     -164.359    -272.650     132.737
  C     -163.979    -271.550     132.064
  C     -164.323    -271.198     130.770
  C     -165.136    -272.103     130.069
  N     -165.497    -271.925     128.751
  N     -163.734    -269.998     130.417
  C     -163.012    -269.656     131.465
  N     -163.115    -270.574     132.477
  O     -158.426    -266.371     132.998
  O     -158.100    -267.619     130.786
  H     -161.661    -273.072     134.623
  H     -157.561    -266.043     132.689
  H     -165.524    -274.333     132.447
  H     -162.367    -268.789     131.528
  H     -162.882    -270.977     134.496
  H     -160.756    -271.600     132.366
  H     -159.040    -271.226     133.857
  H     -160.644    -269.614     135.731
  H     -159.824    -267.666     134.424
  H     -165.984    -272.679     128.292
  H     -165.100    -271.150     128.241
  H     -158.501    -268.747     134.913
  P     -158.733    -272.852     135.810
  C     -158.817    -272.806     138.411
  O     -158.952    -273.577     137.223
  O     -157.617    -271.748     136.131
  O     -158.340    -273.736     134.677
  H     -156.732    -272.097     135.912
  H     -158.992    -273.430     139.263
  H     -159.529    -272.008     138.401
  H     -157.828    -272.401     138.463

 6  7  8  9  10  11  12  13  14  15  25  28  32  33  34  35 0
 6-311+G(2d,p)
 ****
 36  39  40 0
 6-311+G(2d,p)
 ****
 1  2  3  4  5  16  17  18  19  20  21  22  23  24 0
 3-21G
 ****
 26  27  29  30  31  37  38  41  42  43  44  45  46  47  48 0
 3-21G
 ****


