%nproc=1
%NoSave
%Mem=1900MB
#P OB98/GEN NMR

erre ene a

0 1
  C      317.926    -291.805      83.607
  O      318.815    -291.846      82.501
  P      318.197    -292.096      81.045
  C      317.381    -294.169      79.705
  O      317.668    -293.611      80.982
  C      316.421    -295.353      79.830
  O      315.232    -294.949      80.567
  C      315.954    -295.913      78.484
  O      315.775    -297.333      78.595
  C      314.582    -295.293      78.300
  O      313.776    -296.062      77.412
  C      314.090    -295.261      79.746
  N      309.159    -294.327      79.120
  C      309.842    -295.525      79.047
  N      309.124    -296.605      78.675
  N      311.112    -295.657      79.326
  C      311.703    -294.489      79.680
  C      311.131    -293.245      79.805
  C      309.732    -293.110      79.485
  O      309.070    -292.073      79.497
  N      312.049    -292.308      80.223
  C      313.181    -292.974      80.307
  N      313.032    -294.291      79.960
  O      319.499    -292.110      80.107
  O      317.229    -291.055      80.593
  H      314.126    -295.912      76.513
  H      319.551    -291.280      79.601
  H      308.182    -294.272      78.886
  H      314.134    -292.553      80.599
  H      313.713    -296.241      80.064
  H      314.679    -294.281      77.884
  H      308.155    -296.558      78.376
  H      316.631    -295.702      77.645
  H      309.602    -297.491      78.568
  H      316.911    -296.137      80.426
  H      318.309    -294.503      79.244
  H      316.943    -293.393      79.066
  P      316.360    -298.215      77.384
  C      315.479    -298.735      74.984
  O      315.428    -297.892      76.119
  O      315.944    -299.709      77.784
  O      317.829    -298.063      77.167
  H      316.557    -300.352      77.372
  H      314.501    -299.202      74.851
  H      316.233    -299.517      75.084
  H      315.707    -298.131      74.102
  H      318.482    -291.632      84.505
  H      317.408    -292.738      83.683
  H      317.219    -291.014      83.467

 3  4  5  6  7  8  9  10  11  12  23  26  30  31 0
 6-311+G(2d,p)
 ****
 33  35  36  37  38 0
 6-311+G(2d,p)
 ****
 1  2  13  14  15  16  17  18  19  20  21  22  24  25 0
 3-21G
 ****
 27  28  29  32  34  39  40  41  42  43  44  45  46  47  48  49 0
 3-21G
 ****


