%nproc=1
%NoSave
%Mem=1900MB
#P OB98/GEN NMR

erre ene a

0 1
  C      107.480      90.695     964.638
  O      108.031      89.897     965.681
  P      107.254      89.860     967.079
  C      108.436      91.972     968.036
  O      107.224      91.376     967.617
  C      108.217      92.813     969.286
  O      107.438      93.995     968.979
  C      107.428      92.104     970.387
  O      108.248      91.242     971.169
  C      106.966      93.293     971.225
  O      108.030      93.737     972.081
  C      106.670      94.342     970.143
  N      102.118      96.067     971.585
  C      103.382      96.351     972.080
  N      103.428      97.171     973.157
  N      104.494      95.889     971.580
  C      104.289      95.073     970.509
  C      103.105      94.712     969.916
  C      101.883      95.236     970.496
  O      100.737      94.975     970.125
  N      103.306      93.885     968.847
  C      104.615      93.735     968.780
  N      105.256      94.410     969.807
  O      108.290      89.147     968.065
  O      105.932      89.160     967.047
  H      108.738      94.085     971.502
  H      107.830      88.825     968.867
  H      101.301      96.444     972.008
  H      105.139      93.152     968.045
  H      106.979      95.350     970.463
  H      106.122      93.058     971.869
  H      102.598      97.517     973.634
  H      106.557      91.582     969.983
  H      104.326      97.357     973.589
  H      109.194      93.139     969.661
  H      108.826      92.599     967.232
  H      109.175      91.189     968.238
  P      107.510      90.014     971.898
  C      106.845      91.122     974.154
  O      106.437      90.697     972.875
  O      108.636      89.462     972.898
  O      106.998      88.967     970.972
  H      108.487      88.525     973.079
  H      106.089      91.784     974.574
  H      107.800      91.671     974.109
  H      106.966      90.254     974.821
  H      108.100      90.624     963.769
  H      107.429      91.715     964.958
  H      106.496      90.345     964.403

 3  4  5  6  7  8  9  10  11  12  23  26  30  31 0
 6-311+G(2d,p)
 ****
 33  35  36  37  38 0
 6-311+G(2d,p)
 ****
 1  2  13  14  15  16  17  18  19  20  21  22  24  25 0
 3-21G
 ****
 27  28  29  32  34  39  40  41  42  43  44  45  46  47  48  49 0
 3-21G
 ****


