%nproc=1
%NoSave
%Mem=1900MB
#P OB98/GEN NMR

erre ene a

0 1
  C     -829.984     295.598    -892.500
  O     -830.698     294.396    -892.170
  P     -830.923     293.244    -893.260
  C     -833.496     293.328    -893.020
  O     -832.361     293.513    -893.880
  C     -834.752     293.905    -893.650
  O     -834.544     295.311    -893.920
  C     -835.154     293.296    -895.010
  O     -835.896     292.081    -894.930
  C     -836.029     294.389    -895.570
  O     -837.352     294.312    -894.950
  C     -835.329     295.668    -895.110
  N     -834.654     299.390    -898.570
  C     -835.649     299.140    -897.670
  N     -835.774     298.112    -896.790
  C     -834.687     297.325    -896.860
  C     -833.587     297.434    -897.700
  C     -833.597     298.528    -898.610
  N     -832.564     298.774    -899.510
  N     -832.698     296.407    -897.530
  C     -833.224     295.703    -896.570
  N     -834.415     296.221    -896.130
  O     -830.716     291.847    -892.730
  O     -829.914     293.606    -894.440
  H     -837.956     294.802    -895.540
  H     -829.776     292.829    -895.020
  H     -836.460     299.850    -897.670
  H     -832.779     294.809    -896.130
  H     -836.011     296.459    -894.800
  H     -836.178     294.316    -896.660
  H     -834.258     293.182    -895.670
  H     -835.585     293.789    -892.940
  H     -833.292     293.865    -892.070
  H     -832.602     299.685    -900.000
  H     -831.724     298.260    -899.410
  H     -833.607     292.263    -892.790
  P     -836.165     291.275    -896.300
  C     -838.722     290.749    -896.030
  O     -837.700     291.519    -896.620
  O     -835.716     289.877    -896.290
  O     -835.420     292.195    -897.400
  H     -835.777     293.074    -897.550
  H     -839.702     291.147    -896.260
  H     -838.595     290.704    -894.940
  H     -838.685     289.702    -896.430
  H     -829.943     296.235    -891.642
  H     -830.488     296.105    -893.297
  H     -828.990     295.349    -892.808

 3  4  5  6  7  8  9  10  11  12  22  25  29  30  31  32 0
 6-311+G(2d,p)
 ****
 33  36  37 0
 6-311+G(2d,p)
 ****
 1  2  13  14  15  16  17  18  19  20  21  23  24  26 0
 3-21G
 ****
 27  28  34  35  38  39  40  41  42  43  44  45  46  47  48 0
 3-21G
 ****


