%nproc=1
%NoSave
%Mem=1900MB
#P OB98/GEN NMR

erre ene a

0 1
  C     -453.969    -640.396    -620.538
  O     -453.132    -639.834    -621.553
  P     -452.760    -638.279    -621.463
  C     -450.351    -638.373    -622.396
  O     -451.690    -637.943    -622.613
  C     -449.639    -638.632    -623.724
  O     -450.091    -639.899    -624.269
  C     -449.917    -637.590    -624.822
  O     -449.068    -636.449    -624.900
  C     -449.656    -638.413    -626.089
  O     -448.244    -638.432    -626.376
  C     -450.123    -639.812    -625.712
  N     -452.806    -641.449    -629.752
  C     -451.487    -641.253    -629.566
  N     -450.855    -640.815    -628.458
  C     -451.727    -640.580    -627.469
  C     -453.104    -640.729    -627.515
  C     -453.651    -641.186    -628.724
  N     -455.001    -641.377    -628.918
  N     -453.673    -640.388    -626.297
  C     -452.656    -640.009    -625.548
  N     -451.456    -640.129    -626.202
  O     -452.418    -637.769    -620.099
  O     -454.086    -637.570    -622.017
  H     -448.146    -638.872    -627.236
  H     -454.244    -636.753    -621.510
  H     -450.847    -641.480    -630.418
  H     -452.744    -639.649    -624.528
  H     -449.458    -640.592    -626.093
  H     -450.143    -637.984    -626.966
  H     -450.965    -637.271    -624.800
  H     -448.553    -638.709    -623.554
  H     -450.360    -639.286    -621.795
  H     -455.311    -641.662    -629.832
  H     -455.647    -641.131    -628.178
  H     -449.852    -637.609    -621.789
  P     -449.151    -635.271    -623.806
  C     -446.684    -634.436    -624.114
  O     -448.069    -634.183    -624.276
  O     -449.030    -635.706    -622.391
  O     -450.542    -634.566    -624.171
  H     -450.555    -634.109    -625.022
  H     -446.120    -633.679    -624.672
  H     -446.424    -635.420    -624.488
  H     -446.423    -634.348    -623.048
  H     -454.124    -641.436    -620.738
  H     -454.912    -639.890    -620.532
  H     -453.498    -640.283    -619.584

 3  4  5  6  7  8  9  10  11  12  22  25  29  30  31  32 0
 6-311+G(2d,p)
 ****
 33  36  37 0
 6-311+G(2d,p)
 ****
 1  2  13  14  15  16  17  18  19  20  21  23  24  26 0
 3-21G
 ****
 27  28  34  35  38  39  40  41  42  43  44  45  46  47  48 0
 3-21G
 ****


