%nproc=1
%NoSave
%Mem=1900MB
#P OB98/GEN NMR

erre ene a

0 1
  C     -120.122     -63.647     204.772
  O     -120.742     -63.899     206.016
  H     -120.643     -62.816     204.282
  H     -120.195     -64.529     204.129
  H     -119.071     -63.374     204.905
  P     -120.050     -64.934     207.029
  C     -121.460     -66.956     206.271
  O     -121.139     -66.074     207.340
  C     -122.391     -68.063     206.774
  O     -122.747     -68.945     205.684
  C     -121.769     -68.956     207.848
  O     -121.740     -68.298     209.102
  C     -122.695     -70.166     207.780
  O     -123.914     -69.918     208.494
  C     -122.960     -70.260     206.251
  N     -122.127     -71.260     205.584
  C     -122.644     -72.553     205.520
  O     -123.721     -72.871     206.026
  N     -121.867     -73.475     204.863
  C     -120.617     -73.254     204.356
  O     -119.940     -74.134     203.824
  C     -120.111     -71.881     204.490
  C     -120.873     -70.962     205.082
  O     -119.411     -64.337     208.237
  O     -118.983     -65.697     206.113
  H     -124.273     -69.072     208.157
  H     -118.091     -65.328     206.266
  H     -122.221     -74.417     204.814
  H     -119.113     -71.669     204.100
  H     -120.515     -69.946     205.190
  H     -124.016     -70.514     206.067
  H     -122.250     -71.059     208.210
  H     -120.760     -69.270     207.550
  H     -123.312     -67.591     207.145
  H     -120.534     -67.404     205.894
  H     -121.933     -66.387     205.468
  P     -120.359     -68.088     209.885
  C     -120.555     -70.619     210.235
  O     -120.116     -69.392     210.799
  O     -120.228     -66.785     210.611
  O     -119.244     -68.227     208.744
  H     -118.872     -67.344     208.531
  H     -120.349     -71.418     210.916
  H     -120.039     -70.793     209.314
  H     -121.608     -70.570     210.050

 6  7  8  9  10  11  12  13  14  15  16  26  31  32  33  34  35 0
 6-311+G(2d,p)
 ****
 36  37 0
 6-311+G(2d,p)
 ****
 1  2  3  4  5  17  18  19  20  21  22  23  24  25 0
 3-21G
 ****
 27  28  29  30  38  39  40  41  42  43  44  45 0
 3-21G
 ****


