%nproc=1
%NoSave
%Mem=1900MB
#P OB98/GEN NMR

erre ene a

0 1
  C      359.837     150.174    -111.190
  O      360.676     149.515    -112.124
  P      360.355     148.026    -112.639
  C      361.419     146.792    -110.629
  O      361.507     147.103    -112.011
  C      362.419     145.692    -110.266
  O      362.295     145.400    -108.852
  C      362.218     144.376    -111.032
  O      363.516     143.812    -111.254
  C      361.427     143.533    -110.049
  O      361.537     142.141    -110.314
  C      362.042     143.987    -108.721
  N      361.171     143.711    -107.584
  C      361.438     142.571    -106.822
  O      362.359     141.813    -107.122
  N      360.650     142.309    -105.730
  C      359.631     143.070    -105.470
  N      358.916     142.803    -104.344
  C      359.248     144.222    -106.311
  C      360.069     144.494    -107.322
  O      360.189     147.896    -114.112
  O      359.076     147.583    -111.794
  H      362.465     141.874    -110.169
  H      358.223     147.884    -112.198
  H      358.375     144.809    -106.068
  H      359.884     145.334    -107.977
  H      363.014     143.504    -108.570
  H      360.366     143.803    -110.109
  H      361.717     144.519    -111.995
  H      363.434     146.080    -110.433
  H      359.309     142.119    -103.706
  H      360.409     146.431    -110.419
  H      358.339     143.516    -103.912
  H      361.593     147.694    -110.035
  P      363.896     143.339    -112.740
  C      364.563     140.883    -112.233
  O      364.987     142.171    -112.626
  O      364.783     144.574    -113.256
  O      362.755     143.109    -113.677
  H      364.741     144.614    -114.232
  H      365.430     140.219    -112.216
  H      363.834     140.484    -112.944
  H      364.128     140.911    -111.231
  H      360.229     151.148    -110.984
  H      359.797     149.606    -110.284
  H      358.852     150.265    -111.598

 3  4  5  6  7  8  9  10  11  12  13  23  27  28  29  30  32 0
 6-311+G(2d,p)
 ****
 34  35 0
 6-311+G(2d,p)
 ****
 1  2  14  15  16  17  18  19  20  21  22  24  25  26 0
 3-21G
 ****
 31  33  36  37  38  39  40  41  42  43  44  45  46 0
 3-21G
 ****


