%nproc=1
%NoSave
%Mem=1900MB
#P OB98/GEN NMR

erre ene a

0 1
  C     -355.583     398.452    -899.073
  O     -356.532     398.387    -897.993
  P     -356.031     398.628    -896.483
  C     -357.165     396.455    -895.673
  O     -355.938     397.228    -895.733
  C     -356.946     395.232    -894.843
  O     -356.019     394.308    -895.463
  C     -356.411     395.473    -893.443
  O     -357.419     395.996    -892.593
  C     -355.888     394.111    -893.063
  O     -356.955     393.269    -892.573
  C     -355.361     393.565    -894.433
  N     -351.134     391.228    -896.073
  C     -352.407     390.793    -895.903
  N     -353.471     391.466    -895.463
  C     -353.104     392.722    -895.063
  C     -351.846     393.291    -895.093
  C     -350.813     392.496    -895.663
  N     -349.533     392.943    -895.853
  N     -351.849     394.554    -894.593
  C     -353.123     394.768    -894.213
  N     -353.919     393.677    -894.573
  O     -356.752     399.704    -895.733
  O     -354.467     399.060    -896.683
  H     -357.172     393.589    -891.663
  H     -354.332     399.969    -896.323
  H     -352.598     389.792    -896.283
  H     -353.492     395.649    -893.743
  H     -355.644     392.507    -894.573
  H     -355.100     394.134    -892.283
  H     -355.559     396.192    -893.513
  H     -357.933     394.698    -894.763
  H     -357.445     396.198    -896.723
  H     -348.929     392.369    -896.413
  H     -349.361     393.971    -895.853
  H     -357.947     397.101    -895.263
  P     -357.031     396.559    -891.133
  C     -359.001     395.419    -889.933
  O     -357.594     395.521    -890.073
  O     -357.356     398.012    -890.863
  O     -355.411     396.313    -891.073
  H     -354.976     397.012    -890.513
  H     -359.387     396.292    -889.393
  H     -359.287     394.511    -889.453
  H     -359.478     395.429    -890.953
  H     -356.085     398.269    -900.000
  H     -354.824     397.712    -898.926
  H     -355.135     399.423    -899.096

 3  4  5  6  7  8  9  10  11  12  22  25  29  30  31  32 0
 6-311+G(2d,p)
 ****
 33  36  37 0
 6-311+G(2d,p)
 ****
 1  2  13  14  15  16  17  18  19  20  21  23  24  26 0
 3-21G
 ****
 27  28  34  35  38  39  40  41  42  43  44  45  46  47  48 0
 3-21G
 ****


