%nproc=1
%NoSave
%Mem=1900MB
#P OB98/GEN NMR

erre ene a

0 1
  C       13.754    -663.460    -890.918
  O       13.804    -662.724    -892.128
  H       13.415    -664.483    -891.118
  H       14.757    -663.498    -890.498
  H       13.078    -662.983    -890.218
  P       12.423    -662.546    -892.928
  C       12.339    -664.986    -893.818
  O       12.469    -663.614    -894.138
  C       11.434    -665.669    -894.838
  O       10.069    -665.195    -894.718
  C       11.840    -665.404    -896.298
  O       12.891    -666.237    -896.718
  C       10.533    -665.753    -896.998
  O       10.397    -667.190    -897.088
  C        9.481    -665.176    -896.038
  N        6.319    -662.293    -898.858
  C        6.505    -663.626    -898.768
  N        7.367    -664.319    -898.008
  C        8.106    -663.488    -897.258
  C        8.053    -662.106    -897.238
  C        7.090    -661.494    -898.088
  N        6.918    -660.133    -898.178
  N        8.986    -661.580    -896.368
  C        9.582    -662.646    -895.848
  N        9.094    -663.811    -896.368
  O       12.607    -661.148    -893.678
  O       11.182    -662.593    -892.098
  H        9.586    -667.364    -897.588
  H       11.733    -660.781    -893.928
  H        5.846    -664.228    -899.418
  H       10.369    -662.622    -895.108
  H        8.568    -665.781    -895.998
  H       10.479    -665.368    -898.018
  H       12.059    -664.340    -896.468
  H       11.443    -666.755    -894.638
  H       11.892    -665.084    -892.818
  H        6.354    -659.803    -898.938
  H        7.608    -659.545    -897.718
  H       13.332    -665.455    -893.798
  P       14.335    -665.548    -896.938
  C       13.704    -664.023    -898.948
  O       14.420    -665.174    -898.498
  O       15.348    -666.781    -896.788
  O       14.638    -664.445    -895.978
  H       16.227    -666.484    -896.488
  H       13.853    -663.899    -900.000
  H       14.062    -663.156    -898.433
  H       12.661    -664.151    -898.747

 6  7  8  9  10  11  12  13  14  15  25  28  32  33  34  35 0
 6-311+G(2d,p)
 ****
 36  39  40 0
 6-311+G(2d,p)
 ****
 1  2  3  4  5  16  17  18  19  20  21  22  23  24 0
 3-21G
 ****
 26  27  29  30  31  37  38  41  42  43  44  45  46  47 0
 3-21G
 ****
 48 0
 3-21G
 ****


