%nproc=1
%NoSave
%Mem=1900MB
#P OB98/GEN NMR

erre ene a

0 1
  C      129.122      33.235     -29.330
  O      127.922      33.578     -28.626
  P      127.872      34.708     -27.490
  C      127.798      33.112     -25.464
  O      128.523      34.133     -26.144
  C      128.722      32.233     -24.615
  O      129.684      33.040     -23.911
  C      128.017      31.415     -23.541
  O      127.351      30.299     -24.103
  C      129.184      31.068     -22.623
  O      129.914      29.935     -23.121
  C      130.040      32.348     -22.700
  N      129.877      33.199     -21.527
  C      130.588      32.829     -20.382
  O      131.263      31.800     -20.371
  N      130.494      33.626     -19.266
  C      129.703      34.653     -19.271
  N      129.656      35.408     -18.141
  C      128.866      35.024     -20.427
  C      129.005      34.263     -21.510
  O      126.520      35.318     -27.299
  O      128.922      35.821     -27.964
  H      130.732      29.877     -22.591
  H      128.623      36.695     -27.651
  H      128.200      35.871     -20.381
  H      128.435      34.470     -22.409
  H      131.103      32.091     -22.799
  H      128.860      30.820     -21.608
  H      127.305      32.049     -22.999
  H      129.274      31.572     -25.297
  H      130.247      35.130     -17.368
  H      127.297      32.490     -26.214
  H      129.076      36.228     -18.042
  H      127.037      33.582     -24.833
  P      125.863      30.463     -24.672
  C      124.629      30.332     -22.425
  O      124.980      31.150     -23.526
  O      125.267      29.241     -25.286
  O      126.001      31.637     -25.756
  H      125.352      31.487     -26.468
  H      124.404      30.974     -21.568
  H      125.448      29.657     -22.158
  H      123.741      29.747     -22.676
  H      128.912      32.459     -30.036
  H      129.859      32.893     -28.633
  H      129.491      34.096     -29.846

 3  4  5  6  7  8  9  10  11  12  13  23  27  28  29  30  32 0
 6-311+G(2d,p)
 ****
 34  35 0
 6-311+G(2d,p)
 ****
 1  2  14  15  16  17  18  19  20  21  22  24  25  26 0
 3-21G
 ****
 31  33  36  37  38  39  40  41  42  43  44  45  46 0
 3-21G
 ****


