%nproc=1
%NoSave
%Mem=1900MB
#P OB98/GEN NMR

erre ene a

0 1
  C     -107.067    -213.646     137.233
  O     -107.619    -214.805     136.629
  P     -108.603    -214.690     135.376
  C     -110.802    -214.320     136.764
  O     -109.877    -213.838     135.811
  C     -112.226    -214.152     136.210
  O     -112.452    -212.773     135.839
  C     -112.449    -215.020     134.976
  O     -113.050    -216.257     135.337
  C     -113.345    -214.142     134.113
  O     -114.715    -214.248     134.543
  C     -112.792    -212.733     134.423
  N     -111.592    -212.277     133.681
  C     -111.317    -210.915     133.596
  O     -111.993    -210.044     134.131
  N     -110.222    -210.579     132.836
  C     -109.381    -211.456     132.213
  O     -108.566    -211.149     131.349
  C     -109.569    -212.870     132.562
  C     -110.662    -213.210     133.248
  O     -109.181    -216.171     135.234
  O     -107.976    -214.211     134.108
  H     -115.252    -213.702     133.940
  H     -108.705    -216.666     134.539
  H     -110.097    -209.590     132.659
  H     -108.842    -213.588     132.203
  H     -110.840    -214.259     133.492
  H     -113.561    -211.970     134.287
  H     -113.328    -214.466     133.075
  H     -111.502    -215.181     134.442
  H     -112.945    -214.412     137.000
  H     -110.694    -213.771     137.708
  H     -110.604    -215.376     136.982
  P     -112.592    -217.601     134.603
  C     -114.981    -217.888     133.735
  O     -113.620    -217.792     133.389
  O     -112.407    -218.790     135.484
  O     -111.216    -217.175     133.890
  H     -110.455    -217.457     134.440
  H     -115.588    -217.834     132.829
  H     -115.270    -217.067     134.405
  H     -115.178    -218.846     134.231
  H     -106.439    -213.934     138.050
  H     -107.857    -213.021     137.594
  H     -106.489    -213.109     136.511

 3  4  5  6  7  8  9  10  11  12  13  23  28  29  30  31  32 0
 6-311+G(2d,p)
 ****
 33  34 0
 6-311+G(2d,p)
 ****
 1  2  14  15  16  17  18  19  20  21  22  24  25  26  27 0
 3-21G
 ****
 35  36  37  38  39  40  41  42  43  44  45 0
 3-21G
 ****


