%nproc=1
%NoSave
%Mem=1900MB
#P OB98/GEN NMR

erre ene a

0 1
  C     -439.004     218.830     354.896
  O     -437.920     219.620     354.451
  H     -439.025     218.840     355.990
  H     -438.866     217.798     354.560
  H     -439.955     219.221     354.523
  P     -437.924     220.072     352.915
  C     -439.076     222.280     353.653
  O     -438.027     221.677     352.910
  C     -438.846     223.788     353.771
  O     -437.663     224.014     354.597
  C     -438.618     224.499     352.427
  O     -439.228     225.793     352.479
  C     -437.111     224.684     352.398
  O     -436.715     225.751     351.542
  C     -436.829     224.936     353.873
  N     -432.963     227.024     356.303
  C     -434.307     227.332     356.327
  N     -434.682     228.398     357.062
  N     -435.216     226.648     355.672
  C     -434.706     225.591     354.994
  C     -433.401     225.186     354.886
  C     -432.400     225.955     355.596
  O     -431.194     225.749     355.600
  N     -433.291     224.100     354.051
  C     -434.524     223.872     353.637
  N     -435.420     224.749     354.182
  O     -439.373     219.601     352.414
  O     -436.831     219.499     352.075
  H     -436.782     226.587     352.041
  H     -439.307     218.721     351.997
  H     -432.304     227.588     356.807
  H     -434.817     223.100     352.936
  H     -437.090     225.952     354.185
  H     -436.623     223.763     352.053
  H     -434.046     228.954     357.612
  H     -438.998     223.945     351.563
  H     -435.668     228.615     357.118
  H     -439.700     224.232     354.303
  H     -439.104     221.843     354.655
  H     -440.031     222.077     353.158
  P     -440.144     226.247     351.243
  C     -441.647     224.136     350.960
  O     -441.563     225.502     351.355
  O     -439.447     225.524     349.993
  O     -440.211     227.727     351.047
  H     -439.523     226.082     349.198
  H     -442.650     223.787     351.093
  H     -440.983     223.550     351.560
  H     -441.371     224.045     349.930

 6  7  8  9  10  11  12  13  14  15  26  29  33  34 0
 6-311+G(2d,p)
 ****
 36  38  39  40  41 0
 6-311+G(2d,p)
 ****
 1  2  3  4  5  16  17  18  19  20  21  22  23  24  25 0
 3-21G
 ****
 27  28  30  31  32  35  37  42  43  44  45  46  47 0
 3-21G
 ****
 48  49 0
 3-21G
 ****


