%nproc=1
%NoSave
%Mem=1900MB
#P OB98/GEN NMR

erre ene a

0 1
  C      600.000     422.941    1003.849
  O      600.892     421.927    1003.431
  H      599.777     423.598    1002.999
  H      600.456     423.546    1004.636
  H      599.063     422.501    1004.203
  P      601.373     420.832    1004.496
  C      603.629     421.961    1005.161
  O      602.986     420.910    1004.436
  C      605.136     421.788    1005.099
  O      605.594     420.714    1005.952
  C      605.685     421.441    1003.714
  O      605.670     422.534    1002.807
  C      607.097     421.025    1004.087
  O      607.885     422.180    1004.372
  C      606.834     420.191    1005.364
  N      606.713     418.753    1005.112
  C      607.884     417.998    1005.209
  O      608.944     418.536    1005.515
  N      607.825     416.647    1004.930
  C      606.684     416.099    1004.577
  N      606.700     414.772    1004.328
  C      605.443     416.869    1004.452
  C      605.523     418.183    1004.713
  O      600.793     419.464    1004.345
  O      601.078     421.506    1005.922
  H      607.860     422.751    1003.578
  H      601.351     420.864    1006.620
  H      604.532     416.378    1004.112
  H      604.629     418.804    1004.625
  H      607.629     420.342    1006.112
  H      607.608     420.460    1003.302
  H      605.149     420.567    1003.300
  H      605.602     422.719    1005.483
  H      607.570     414.261    1004.430
  H      603.263     421.918    1006.202
  H      605.883     414.264    1003.978
  H      603.356     422.925    1004.729
  P      604.887     422.304    1001.406
  C      607.131     421.491    1000.330
  O      606.011     422.352    1000.259
  O      604.068     423.671    1001.223
  O      604.003     421.085    1001.376
  H      603.127     423.550    1001.512
  H      607.767     421.663     999.487
  H      606.800     420.474    1000.325
  H      607.673     421.685    1001.232

 6  7  8  9  10  11  12  13  14  15  16  26  30  31  32  33  35 0
 6-311+G(2d,p)
 ****
 37  38 0
 6-311+G(2d,p)
 ****
 1  2  3  4  5  17  18  19  20  21  22  23  24  25 0
 3-21G
 ****
 27  28  29  34  36  39  40  41  42  43  44  45  46 0
 3-21G
 ****


