%nproc=1
%NoSave
%Mem=1900MB
#P OB98/GEN NMR

erre ene a

0 1
  C       33.474      96.245      45.511
  O       32.641      96.015      44.386
  P       32.422      97.231      43.360
  C       30.654      98.280      44.947
  O       31.855      98.467      44.212
  C       29.697      99.454      44.737
  O       30.271     100.643      45.348
  C       29.411      99.789      43.264
  O       28.053     100.237      43.199
  C       30.379     100.929      43.004
  O       30.077     101.692      41.848
  C       30.289     101.672      44.333
  N       32.273     106.204      43.049
  C       31.109     105.604      42.713
  N       30.644     104.398      43.102
  C       31.514     103.800      43.934
  C       32.745     104.279      44.349
  C       33.121     105.545      43.872
  N       34.314     106.153      44.209
  N       33.371     103.373      45.180
  C       32.533     102.360      45.263
  N       31.390     102.582      44.544
  O       31.154      96.761      42.509
  O       33.600      97.542      42.489
  H       29.119     101.883      41.816
  H       31.248      97.008      41.569
  H       30.465     106.166      42.044
  H       32.708     101.447      45.814
  H       29.357     102.245      44.421
  H       31.385     100.516      42.861
  H       29.538      98.935      42.593
  H       28.761      99.236      45.264
  H       30.888      98.215      46.014
  H       34.577     106.959      43.662
  H       35.018     105.572      44.647
  H       30.189      97.335      44.647
  P       27.117      99.706      42.008
  C       27.382     101.993      40.868
  O       27.558     100.595      40.746
  O       25.717     100.376      42.400
  O       27.072      98.229      41.824
  H       25.811     101.330      42.573
  H       27.809     102.477      39.986
  H       27.894     102.364      41.760
  H       26.316     102.231      40.920
  H       33.528      95.355      46.102
  H       33.067      97.040      46.100
  H       34.455      96.513      45.179

 3  4  5  6  7  8  9  10  11  12  22  25  29  30  31  32 0
 6-311+G(2d,p)
 ****
 33  36  37 0
 6-311+G(2d,p)
 ****
 1  2  13  14  15  16  17  18  19  20  21  23  24  26 0
 3-21G
 ****
 27  28  34  35  38  39  40  41  42  43  44  45  46  47  48 0
 3-21G
 ****


