%nproc=1
%NoSave
%Mem=1900MB
#P OB98/GEN NMR

erre ene a

0 1
  C      142.829     103.626    -192.799
  O      141.918     103.204    -193.794
  H      143.656     104.156    -193.278
  H      143.229     102.748    -192.282
  H      142.348     104.294    -192.081
  P      140.454     102.765    -193.310
  C      138.175     103.992    -193.075
  O      139.462     103.978    -193.678
  C      137.246     104.943    -193.831
  O      137.795     106.295    -193.747
  C      137.068     104.600    -195.319
  O      135.719     104.887    -195.705
  C      137.982     105.605    -196.002
  O      137.608     105.846    -197.359
  C      137.809     106.816    -195.091
  N      138.673     111.690    -195.939
  C      137.506     111.029    -195.590
  N      136.378     111.772    -195.512
  N      137.449     109.747    -195.342
  C      138.652     109.129    -195.435
  C      139.870     109.666    -195.774
  C      139.917     111.085    -196.068
  O      140.910     111.721    -196.398
  N      140.842     108.691    -195.822
  C      140.206     107.567    -195.529
  N      138.875     107.785    -195.289
  O      140.573     102.844    -191.713
  O      140.007     101.416    -193.767
  H      138.139     106.594    -197.690
  H      140.794     101.965    -191.355
  H      138.655     112.676    -196.138
  H      140.651     106.584    -195.498
  H      136.860     107.342    -195.265
  H      139.020     105.245    -195.990
  H      136.348     112.768    -195.659
  H      137.318     103.562    -195.571
  H      135.527     111.311    -195.218
  H      136.277     104.958    -193.320
  H      138.266     104.330    -192.037
  H      137.768     102.974    -193.080
  P      134.587     103.803    -195.364
  C      134.024     102.626    -193.110
  O      134.297     103.844    -193.789
  O      135.358     102.411    -195.555
  O      133.387     103.889    -196.240
  H      134.744     101.737    -195.904
  H      133.854     102.826    -192.073
  H      134.859     101.965    -193.213
  H      133.153     102.169    -193.533

 6  7  8  9  10  11  12  13  14  15  26  29  33  34 0
 6-311+G(2d,p)
 ****
 36  38  39  40  41 0
 6-311+G(2d,p)
 ****
 1  2  3  4  5  16  17  18  19  20  21  22  23  24  25 0
 3-21G
 ****
 27  28  30  31  32  35  37  42  43  44  45  46  47 0
 3-21G
 ****
 48  49 0
 3-21G
 ****


