%nproc=1
%NoSave
%Mem=1900MB
#P OB98/GEN NMR

erre ene a

0 1
  C     -161.101     424.751    -714.718
  O     -160.554     423.837    -713.767
  P     -161.517     423.279    -712.612
  C     -161.494     420.706    -713.252
  O     -161.191     421.740    -712.334
  C     -160.632     419.473    -712.921
  O     -159.236     419.752    -713.181
  C     -160.741     419.030    -711.457
  O     -161.837     418.168    -711.247
  C     -159.386     418.377    -711.233
  O     -159.372     417.056    -711.807
  C     -158.451     419.324    -712.032
  N     -157.939     420.528    -711.334
  C     -157.150     420.384    -710.189
  O     -156.854     419.302    -709.692
  N     -156.700     421.553    -709.628
  C     -156.795     422.798    -710.160
  O     -156.323     423.806    -709.643
  C     -157.496     422.875    -711.446
  C     -158.042     421.767    -711.962
  O     -162.959     423.242    -713.307
  O     -161.518     424.095    -711.352
  H     -160.107     416.561    -711.408
  H     -163.568     423.873    -712.862
  H     -156.194     421.467    -708.765
  H     -157.558     423.846    -711.937
  H     -158.564     421.817    -712.914
  H     -157.580     418.781    -712.409
  H     -159.184     418.250    -710.172
  H     -160.806     419.908    -710.803
  H     -160.938     418.646    -713.581
  H     -161.307     421.030    -714.281
  H     -162.554     420.455    -713.183
  P     -162.421     417.959    -709.769
  C     -164.737     419.032    -710.047
  O     -164.007     417.815    -709.947
  O     -161.967     418.946    -708.740
  O     -161.977     416.462    -709.393
  H     -161.141     416.469    -708.867
  H     -165.774     418.797    -710.320
  H     -164.307     419.677    -710.817
  H     -164.740     419.550    -709.090
  H     -160.343     425.031    -715.420
  H     -161.458     425.623    -714.210
  H     -161.912     424.283    -715.236

 3  4  5  6  7  8  9  10  11  12  13  23  28  29  30  31  32 0
 6-311+G(2d,p)
 ****
 33  34 0
 6-311+G(2d,p)
 ****
 1  2  14  15  16  17  18  19  20  21  22  24  25  26  27 0
 3-21G
 ****
 35  36  37  38  39  40  41  42  43  44  45 0
 3-21G
 ****


