%nproc=1
%NoSave
%Mem=1900MB
#P OB98/GEN NMR

erre ene a

0 1
  C      512.014    -232.564      82.255
  O      512.476    -232.213      80.967
  P      513.924    -232.686      80.480
  C      512.966    -234.913      79.623
  O      513.722    -233.749      79.296
  C      512.123    -235.351      78.431
  O      511.220    -234.297      78.039
  C      512.936    -235.678      77.183
  O      513.554    -236.943      77.300
  C      511.864    -235.592      76.103
  O      511.105    -236.807      76.042
  C      510.991    -234.438      76.617
  N      509.279    -231.140      73.121
  C      508.876    -232.380      73.461
  N      509.410    -233.216      74.380
  C      510.485    -232.653      74.956
  C      511.039    -231.410      74.691
  C      510.375    -230.621      73.737
  N      510.741    -229.330      73.424
  N      512.163    -231.205      75.467
  C      512.286    -232.304      76.181
  N      511.261    -233.178      75.953
  O      514.854    -233.117      81.564
  O      514.503    -231.405      79.715
  H      511.709    -237.513      75.746
  H      515.320    -231.104      80.155
  H      508.006    -232.749      72.934
  H      513.089    -232.508      76.881
  H      509.922    -234.647      76.491
  H      512.284    -235.419      75.106
  H      513.684    -234.895      77.013
  H      511.522    -236.217      78.737
  H      512.316    -234.675      80.472
  H      510.111    -228.806      72.837
  H      511.342    -228.830      74.075
  H      513.651    -235.716      79.920
  P      514.938    -237.227      76.547
  C      516.474    -236.006      78.198
  O      516.083    -237.256      77.670
  O      515.221    -236.355      75.368
  O      514.824    -238.768      76.118
  H      515.309    -238.905      75.284
  H      517.137    -235.499      77.491
  H      517.012    -236.175      79.137
  H      515.601    -235.377      78.398
  H      511.033    -232.163      82.404
  H      512.678    -232.165      82.993
  H      511.981    -233.630      82.344

 3  4  5  6  7  8  9  10  11  12  22  25  29  30  31  32 0
 6-311+G(2d,p)
 ****
 33  36  37 0
 6-311+G(2d,p)
 ****
 1  2  13  14  15  16  17  18  19  20  21  23  24  26 0
 3-21G
 ****
 27  28  34  35  38  39  40  41  42  43  44  45  46  47  48 0
 3-21G
 ****


