%nproc=1
%NoSave
%Mem=1900MB
#P OB98/GEN NMR

erre ene a

0 1
  C      138.165    -158.450      80.604
  O      138.924    -159.009      81.667
  P      138.915    -158.255      83.083
  C      141.486    -157.936      82.973
  O      140.381    -158.430      83.716
  C      142.641    -157.547      83.895
  O      143.772    -157.123      83.084
  C      142.327    -156.406      84.865
  O      143.069    -156.649      86.067
  C      142.905    -155.190      84.163
  O      143.152    -154.113      85.063
  C      144.152    -155.805      83.536
  N      148.332    -153.880      81.307
  C      148.174    -154.652      82.403
  N      147.026    -155.126      82.934
  C      145.967    -154.721      82.213
  C      145.972    -153.906      81.094
  C      147.228    -153.477      80.633
  N      147.393    -152.700      79.510
  N      144.684    -153.691      80.646
  C      143.917    -154.363      81.478
  N      144.649    -155.021      82.426
  O      138.002    -159.213      83.983
  O      138.386    -156.862      83.059
  H      143.634    -154.467      85.837
  H      137.159    -158.766      84.194
  H      149.088    -154.933      82.918
  H      142.838    -154.403      81.440
  H      144.967    -155.920      84.260
  H      142.205    -154.836      83.398
  H      141.260    -156.293      85.093
  H      142.960    -158.441      84.445
  H      141.167    -157.048      82.419
  H      148.329    -152.549      79.167
  H      146.598    -152.553      78.896
  H      141.812    -158.695      82.254
  P      142.222    -156.936      87.399
  C      142.109    -154.376      87.796
  O      142.392    -155.652      88.338
  O      143.077    -158.068      88.141
  O      140.819    -157.381      87.145
  H      142.491    -158.617      88.696
  H      141.701    -153.740      88.584
  H      141.387    -154.432      86.974
  H      143.037    -153.929      87.423
  H      138.270    -159.060      79.731
  H      138.520    -157.463      80.393
  H      137.134    -158.406      80.887

 3  4  5  6  7  8  9  10  11  12  22  25  29  30  31  32 0
 6-311+G(2d,p)
 ****
 33  36  37 0
 6-311+G(2d,p)
 ****
 1  2  13  14  15  16  17  18  19  20  21  23  24  26 0
 3-21G
 ****
 27  28  34  35  38  39  40  41  42  43  44  45  46  47  48 0
 3-21G
 ****


