%nproc=1
%NoSave
%Mem=1900MB
#P OB98/GEN NMR

erre ene a

0 1
  C     -841.217    -342.102    -567.154
  O     -840.760    -340.812    -567.576
  P     -841.624    -339.462    -567.400
  C     -840.218    -337.992    -565.791
  O     -840.604    -338.234    -567.142
  C     -838.728    -337.616    -565.715
  O     -837.916    -338.813    -565.878
  C     -838.221    -336.691    -566.808
  O     -838.662    -335.343    -566.611
  C     -836.711    -336.886    -566.698
  O     -836.150    -336.039    -565.671
  C     -836.608    -338.374    -566.278
  N     -836.059    -339.217    -567.340
  C     -834.726    -339.010    -567.671
  O     -834.076    -338.103    -567.149
  N     -834.156    -339.851    -568.620
  C     -834.904    -340.725    -569.233
  N     -834.263    -341.520    -570.141
  C     -836.355    -340.861    -568.997
  C     -836.868    -340.085    -568.056
  O     -842.707    -339.569    -566.361
  O     -842.248    -339.170    -568.840
  H     -843.066    -338.653    -568.751
  H     -836.250    -335.116    -565.964
  H     -836.931    -341.571    -569.586
  H     -837.914    -340.138    -567.818
  H     -835.962    -338.454    -565.376
  H     -836.202    -336.638    -567.622
  H     -838.581    -337.046    -567.795
  H     -838.528    -337.192    -564.715
  H     -833.262    -341.390    -570.271
  H     -840.403    -338.888    -565.190
  H     -834.746    -342.248    -570.673
  H     -840.848    -337.183    -565.378
  P     -838.698    -334.408    -567.918
  C     -841.040    -333.453    -567.230
  O     -839.677    -333.172    -567.598
  O     -839.521    -335.266    -568.992
  O     -837.344    -334.002    -568.430
  H     -839.092    -335.144    -569.863
  H     -841.406    -332.646    -566.618
  H     -841.113    -334.402    -566.695
  H     -841.644    -333.503    -568.143
  H     -840.471    -342.835    -567.377
  H     -842.122    -342.346    -567.670
  H     -841.400    -342.088    -566.100

 3  4  5  6  7  8  9  10  11  12  13  24  27  28  29  30  32 0
 6-311+G(2d,p)
 ****
 34  35 0
 6-311+G(2d,p)
 ****
 1  2  14  15  16  17  18  19  20  21  22  23  25  26 0
 3-21G
 ****
 31  33  36  37  38  39  40  41  42  43  44  45  46 0
 3-21G
 ****


