%nproc=1
%NoSave
%Mem=1900MB
#P OB98/GEN NMR

erre ene a

0 1
  C      -23.042     -86.673    -133.559
  O      -23.590     -85.379    -133.400
  H      -23.555     -87.357    -132.878
  H      -21.977     -86.662    -133.316
  H      -23.187     -87.022    -134.585
  P      -22.978     -84.227    -134.331
  C      -23.984     -82.012    -135.269
  O      -24.005     -82.998    -134.248
  C      -25.413     -81.630    -135.672
  O      -25.949     -82.673    -136.539
  C      -26.381     -81.499    -134.486
  O      -27.394     -80.544    -134.845
  C      -26.989     -82.891    -134.428
  O      -28.141     -82.906    -133.618
  C      -27.165     -83.149    -135.922
  N      -28.703     -86.379    -139.574
  C      -28.523     -85.041    -139.576
  N      -28.099     -84.252    -138.569
  C      -27.829     -84.982    -137.472
  C      -27.956     -86.353    -137.324
  C      -28.422     -87.065    -138.442
  N      -28.616     -88.427    -138.441
  N      -27.588     -86.741    -136.048
  C      -27.245     -85.622    -135.442
  N      -27.382     -84.536    -136.259
  O      -23.186     -84.799    -135.810
  O      -21.554     -83.873    -134.063
  H      -28.868     -82.398    -134.037
  H      -22.373     -85.246    -136.111
  H      -28.752     -84.536    -140.511
  H      -26.902     -85.542    -134.417
  H      -27.998     -82.571    -136.340
  H      -26.285     -83.605    -133.989
  H      -25.893     -81.181    -133.560
  H      -25.382     -80.710    -136.268
  H      -23.450     -82.420    -136.134
  H      -23.458     -81.124    -134.908
  H      -28.968     -88.861    -139.279
  H      -28.426     -88.950    -137.598
  P      -27.299     -79.048    -134.267
  C      -28.505     -76.764    -134.684
  O      -28.414     -78.148    -134.989
  O      -25.950     -78.512    -134.950
  O      -27.222     -78.930    -132.781
  H      -25.546     -77.831    -134.381
  H      -29.298     -76.325    -135.253
  H      -27.581     -76.283    -134.929
  H      -28.705     -76.641    -133.640

 6  7  8  9  10  11  12  13  14  15  25  28  32  33  34  35 0
 6-311+G(2d,p)
 ****
 36  37  40 0
 6-311+G(2d,p)
 ****
 1  2  3  4  5  16  17  18  19  20  21  22  23  24 0
 3-21G
 ****
 26  27  29  30  31  38  39 41  42  43  44  45  46  47  48 0
 3-21G
 ****


