%nproc=1
%NoSave
%Mem=1900MB
#P OB98/GEN NMR

erre ene a

0 1
  C       91.361     222.874     300.054
  O       90.308     223.344     300.873
  P       89.038     222.444     301.201
  C       88.711     223.149     303.672
  O       88.192     223.215     302.340
  C       87.763     223.852     304.635
  O       87.824     225.300     304.415
  C       86.277     223.407     304.455
  O       85.642     222.963     305.654
  C       85.646     224.621     303.795
  O       84.233     224.683     303.929
  C       86.454     225.772     304.406
  N       86.309     227.025     303.664
  C       85.251     227.859     304.032
  O       84.459     227.628     304.933
  N       85.098     228.994     303.266
  C       85.779     229.288     302.132
  O       85.526     230.273     301.436
  C       86.855     228.350     301.765
  C       87.086     227.285     302.543
  O       89.339     221.014     301.539
  O       88.105     222.621     299.918
  H       83.867     223.862     303.568
  H       87.837     223.539     299.738
  H       84.330     229.604     303.537
  H       87.407     228.551     300.868
  H       87.872     226.568     302.300
  H       86.161     225.958     305.438
  H       85.857     224.560     302.709
  H       86.209     222.549     303.791
  H       88.098     223.644     305.661
  H       89.675     223.658     303.689
  H       88.879     222.099     303.946
  P       84.861     221.573     305.824
  C       86.315     220.894     307.889
  O       85.020     221.091     307.345
  O       85.191     220.537     304.793
  O       83.317     221.998     305.732
  H       82.796     221.248     305.373
  H       86.255     220.131     308.667
  H       86.664     221.834     308.332
  H       87.030     220.572     307.118
  H       92.109     223.634     299.964
  H       90.978     222.634     299.084
  H       91.792     221.999     300.494

 3  4  5  6  7  8  9  10  11  12  13  23  28  29  30  31  32 0
 6-311+G(2d,p)
 ****
 33  34 0
 6-311+G(2d,p)
 ****
 1  2  14  15  16  17  18  19  20  21  22  24  25  26  27 0
 3-21G
 ****
 35  36  37  38  39  40  41  42  43  44  45 0
 3-21G
 ****


