%nproc=1
%NoSave
%Mem=1900MB
#P OB98/GEN NMR

erre ene a

0 1
  C        0.427       9.878      18.907
  O        1.188      10.114      17.740
  H        0.394       8.801      19.090
  H       -0.595      10.243      18.779
  H        0.891      10.364      19.770
  P        1.337      11.617      17.210
  C       -0.683      11.944      15.637
  O       -0.148      12.162      16.938
  C       -1.972      12.753      15.454
  O       -2.955      12.229      16.381
  C       -1.776      14.246      15.752
  O       -2.223      15.091      14.694
  C       -2.428      14.420      17.118
  O       -2.905      15.722      17.382
  C       -3.506      13.330      17.128
  N       -3.899      12.899      18.467
  C       -4.522      13.838      19.282
  O       -4.790      14.993      18.957
  N       -4.859      13.400      20.538
  C       -4.633      12.157      21.044
  O       -4.963      11.821      22.174
  C       -3.951      11.216      20.143
  C       -3.619      11.624      18.915
  O        2.290      11.812      16.079
  O        1.790      12.442      18.506
  H       -3.176      15.755      18.323
  H        2.747      12.621      18.461
  H       -5.321      14.070      21.133
  H       -3.746      10.222      20.515
  H       -3.116      10.954      18.224
  H       -4.403      13.674      16.614
  H       -1.680      14.190      17.886
  H       -0.711      14.491      15.835
  H       -2.352      12.587      14.440
  H       -0.887      10.874      15.532
  H        0.053      12.243      14.882
  P       -1.277      15.728      13.578
  C       -0.800      18.063      14.671
  O       -0.311      16.786      14.289
  O       -1.960      16.169      12.329
  O       -0.290      14.512      13.191
  H       -0.074      14.620      12.243
  H       -0.012      18.625      15.128
  H       -1.603      17.944      15.368
  H       -1.153      18.583      13.805

 6  7  8  9  10  11  12  13  14  15  16  26  31  32  33  34  35 0
 6-311+G(2d,p)
 ****
 36  37 0
 6-311+G(2d,p)
 ****
 1  2  3  4  5  17  18  19  20  21  22  23  24  25 0
 3-21G
 ****
 27  28  29  30  38  39  40  41  42  43  44  45 0
 3-21G
 ****


