%nproc=1
%NoSave
%Mem=1900MB
#P OB98/GEN NMR

erre ene a

0 1
  C      191.919    -118.461    -244.841
  O      191.652    -119.424    -243.817
  P      191.429    -120.983    -244.125
  C      193.034    -122.958    -243.689
  O      192.852    -121.696    -244.323
  C      194.059    -123.822    -244.429
  O      193.614    -124.100    -245.770
  C      195.437    -123.190    -244.581
  O      196.162    -123.240    -243.367
  C      196.021    -124.030    -245.711
  O      196.559    -125.266    -245.213
  C      194.784    -124.284    -246.595
  N      194.749    -123.424    -247.768
  C      195.796    -123.576    -248.687
  O      196.716    -124.359    -248.459
  N      195.786    -122.813    -249.828
  C      194.853    -121.928    -250.003
  N      194.887    -121.203    -251.156
  C      193.782    -121.670    -249.018
  C      193.796    -122.449    -247.941
  O      190.455    -121.252    -245.228
  O      190.893    -121.605    -242.745
  H      196.906    -125.749    -245.989
  H      190.299    -122.352    -242.943
  H      193.044    -120.902    -249.189
  H      193.034    -122.337    -247.168
  H      194.758    -125.331    -246.923
  H      196.832    -123.515    -246.240
  H      195.330    -122.147    -244.916
  H      194.134    -124.785    -243.895
  H      195.631    -121.406    -251.813
  H      192.065    -123.475    -243.675
  H      194.213    -120.492    -251.390
  H      193.354    -122.791    -242.654
  P      197.161    -122.047    -242.981
  C      196.331    -119.621    -243.121
  O      196.278    -120.845    -242.406
  O      198.146    -121.667    -244.038
  O      197.912    -122.591    -241.670
  H      198.817    -122.225    -241.651
  H      195.432    -119.044    -242.899
  H      196.385    -119.796    -244.197
  H      197.211    -119.055    -242.795
  H      192.031    -117.493    -244.400
  H      191.105    -118.444    -245.536
  H      192.820    -118.726    -245.353

 3  4  5  6  7  8  9  10  11  12  13  23  27  28  29  30  32 0
 6-311+G(2d,p)
 ****
 34  35 0
 6-311+G(2d,p)
 ****
 1  2  14  15  16  17  18  19  20  21  22  24  25  26 0
 3-21G
 ****
 31  33  36  37  38  39  40  41  42  43  44  45  46 0
 3-21G
 ****


