%nproc=1
%NoSave
%Mem=1900MB
#P OB98/GEN NMR

erre ene a

0 1
  C      306.166     414.578    -169.010
  O      305.979     413.346    -168.342
  P      305.878     411.982    -169.174
  C      308.378     411.421    -168.970
  O      307.301     411.704    -169.858
  C      308.946     410.031    -169.247
  O      309.134     409.827    -170.665
  C      310.313     409.786    -168.628
  O      310.237     409.612    -167.226
  C      310.769     408.557    -169.405
  O      310.183     407.365    -168.866
  C      310.197     408.851    -170.810
  N      311.215     409.307    -171.741
  C      312.031     408.315    -172.296
  O      311.924     407.144    -171.932
  N      312.955     408.681    -173.242
  C      313.134     409.935    -173.517
  N      314.020     410.234    -174.505
  C      312.405     411.023    -172.834
  C      311.455     410.641    -171.983
  O      304.710     411.885    -170.099
  O      305.802     410.845    -168.048
  H      305.048     410.255    -168.247
  H      310.337     406.657    -169.521
  H      312.641     412.055    -173.049
  H      310.853     411.370    -171.450
  H      309.721     407.951    -171.220
  H      311.855     408.426    -169.379
  H      310.977     410.628    -168.856
  H      308.222     409.287    -168.885
  H      314.486     409.460    -174.963
  H      308.003     411.467    -167.942
  H      313.995     411.116    -175.011
  H      309.153     412.185    -169.088
  P      311.562     409.937    -166.383
  C      310.532     412.220    -165.729
  O      311.657     411.528    -166.229
  O      312.746     409.583    -167.402
  O      311.695     409.166    -165.108
  H      313.496     409.196    -166.915
  H      310.855     413.198    -165.362
  H      310.057     411.675    -164.907
  H      309.807     412.369    -166.534
  H      306.209     415.370    -168.292
  H      305.349     414.748    -169.680
  H      307.081     414.548    -169.563

 3  4  5  6  7  8  9  10  11  12  13  24  27  28  29  30  32 0
 6-311+G(2d,p)
 ****
 34  35 0
 6-311+G(2d,p)
 ****
 1  2  14  15  16  17  18  19  20  21  22  23  25  26 0
 3-21G
 ****
 31  33  36  37  38  39  40  41  42  43  44  45  46 0
 3-21G
 ****


