%nproc=1
%NoSave
%Mem=1900MB
#P OB98/GEN NMR

erre ene a

0 1
  C     -236.496    -338.644    -449.658
  O     -235.317    -339.384    -449.412
  H     -236.421    -337.683    -449.139
  H     -237.361    -339.183    -449.268
  H     -236.622    -338.458    -450.732
  P     -235.134    -340.743    -450.245
  C     -234.817    -342.051    -448.020
  O     -235.522    -341.944    -449.250
  C     -235.767    -342.473    -446.902
  O     -236.774    -341.454    -446.691
  C     -236.523    -343.768    -447.181
  O     -235.739    -344.914    -446.864
  C     -237.693    -343.622    -446.215
  O     -237.255    -343.917    -444.871
  C     -238.022    -342.126    -446.348
  N     -242.884    -340.948    -447.188
  C     -242.223    -341.201    -446.002
  N     -242.964    -341.139    -444.870
  N     -240.950    -341.496    -445.918
  C     -240.334    -341.531    -447.130
  C     -240.876    -341.298    -448.371
  C     -242.284    -340.970    -448.444
  O     -242.911    -340.718    -449.468
  N     -239.938    -341.421    -449.363
  C     -238.833    -341.741    -448.718
  N     -239.020    -341.830    -447.364
  O     -233.540    -340.879    -450.384
  O     -235.795    -340.769    -451.580
  H     -238.028    -343.788    -444.288
  H     -233.333    -341.270    -451.255
  H     -243.862    -340.741    -447.191
  H     -237.873    -341.921    -449.190
  H     -238.381    -341.693    -445.411
  H     -238.513    -344.299    -446.439
  H     -243.957    -340.973    -444.867
  H     -236.901    -343.802    -448.209
  H     -242.494    -341.285    -443.987
  H     -235.184    -342.554    -445.973
  H     -234.374    -341.079    -447.776
  H     -234.012    -342.790    -448.135
  P     -235.434    -345.954    -448.050
  C     -236.264    -348.021    -446.718
  O     -236.462    -347.169    -447.843
  O     -234.021    -346.586    -447.622
  O     -235.388    -345.353    -449.417
  H     -233.561    -346.939    -448.405
  H     -237.018    -348.780    -446.708
  H     -236.326    -347.445    -445.819
  H     -235.299    -348.478    -446.782

 6  7  8  9  10  11  12  13  14  15  26  29  33  34 0
 6-311+G(2d,p)
 ****
 36  38  39  40  41 0
 6-311+G(2d,p)
 ****
 1  2  3  4  5  16  17  18  19  20  21  22  23  24  25 0
 3-21G
 ****
 27  28  30  31  32  35  37  42  43  44  45  46  47 0
 3-21G
 ****
 48  49 0
 3-21G
 ****


