%nproc=1
%NoSave
%Mem=1900MB
#P OB98/GEN NMR

erre ene a

0 1
  C     -899.030    -898.990    -894.236
  O     -899.040    -898.040    -893.196
  H     -900.000    -899.010    -894.756
  H     -898.820    -900.000    -893.846
  H     -898.250    -898.740    -895.006
  P     -897.650    -897.650    -892.566
  C     -897.510    -895.450    -893.966
  O     -896.870    -896.670    -893.636
  C     -896.560    -894.570    -894.796
  O     -895.400    -894.200    -893.986
  C     -896.010    -895.280    -896.076
  O     -895.950    -894.310    -897.166
  C     -894.610    -895.700    -895.666
  O     -893.730    -895.850    -896.786
  C     -894.230    -894.560    -894.716
  N     -889.450    -893.670    -893.376
  C     -890.260    -893.010    -894.296
  N     -889.700    -891.970    -894.916
  N     -891.480    -893.360    -894.556
  C     -891.910    -894.380    -893.796
  C     -891.230    -895.150    -892.856
  C     -889.850    -894.780    -892.626
  O     -889.030    -895.350    -891.836
  N     -891.990    -896.160    -892.346
  C     -893.130    -896.050    -892.926
  N     -893.190    -894.960    -893.826
  O     -896.790    -899.010    -892.626
  O     -897.680    -897.140    -891.156
  H     -893.930    -895.160    -897.436
  H     -896.560    -899.330    -891.746
  H     -888.470    -893.380    -893.226
  H     -894.020    -896.710    -892.786
  H     -893.880    -893.680    -895.266
  H     -894.640    -896.670    -895.176
  H     -888.770    -891.600    -894.716
  H     -896.670    -896.130    -896.386
  H     -890.320    -891.410    -895.556
  H     -897.070    -893.620    -895.096
  H     -897.780    -894.910    -893.066
  H     -898.440    -895.660    -894.556
  P     -896.590    -894.730    -898.556
  C     -898.440    -893.040    -899.026
  O     -898.150    -894.360    -898.636
  O     -896.620    -896.400    -898.496
  O     -895.770    -894.320    -899.746
  H     -895.880    -896.770    -899.006
  H     -899.500    -892.899    -899.047
  H     -898.037    -892.859    -900.000
  H     -898.003    -892.358    -898.327

 6  7  8  9  10  11  12  13  14  15  26  29  33  34 0
 6-311+G(2d,p)
 ****
 36  38  39  40  41 0
 6-311+G(2d,p)
 ****
 1  2  3  4  5  16  17  18  19  20  21  22  23  24  25 0
 3-21G
 ****
 27  28  30  31  32  35  37  42  43  44  45  46  47 0
 3-21G
 ****
 48  49 0
 3-21G
 ****


