%nproc=1
%NoSave
%Mem=1900MB
#P OB98/GEN NMR

erre ene a

0 1
  C      227.748     163.156       6.093
  O      227.372     162.138       5.186
  H      227.450     162.856       7.100
  H      227.247     164.094       5.839
  H      228.833     163.294       6.070
  P      227.623     162.438       3.627
  C      225.140     163.238       3.607
  O      226.489     163.519       3.266
  C      224.209     164.215       2.899
  O      224.347     165.544       3.451
  C      224.472     164.373       1.404
  O      223.969     163.299       0.627
  C      223.719     165.664       1.140
  O      222.302     165.404       1.128
  C      224.126     166.497       2.376
  N      225.325     167.309       2.152
  C      225.122     168.670       1.894
  O      223.987     169.141       1.859
  N      226.216     169.465       1.645
  C      227.408     168.954       1.671
  N      228.451     169.789       1.414
  C      227.668     167.529       1.951
  C      226.596     166.775       2.179
  O      227.089     161.115       2.905
  O      229.012     162.833       3.252
  H      222.050     165.193       2.046
  H      227.062     161.253       1.925
  H      228.679     167.146       1.949
  H      226.708     165.717       2.393
  H      223.307     167.159       2.689
  H      223.966     166.121       0.181
  H      225.536     164.535       1.199
  H      223.177     163.890       3.087
  H      228.236     170.746       1.167
  H      225.032     163.337       4.694
  H      229.395     169.460       1.264
  H      224.883     162.217       3.316
  P      224.655     163.039      -0.801
  C      223.159     164.802      -2.000
  O      224.473     164.381      -1.657
  O      223.653     162.012      -1.505
  O      226.054     162.505      -0.739
  H      224.138     161.385      -2.076
  H      223.211     165.708      -2.567
  H      222.595     164.973      -1.107
  H      222.682     164.043      -2.584

 6  7  8  9  10  11  12  13  14  15  16  26  30  31  32  33  35 0
 6-311+G(2d,p)
 ****
 37  38 0
 6-311+G(2d,p)
 ****
 1  2  3  4  5  17  18  19  20  21  22  23  24  25 0
 3-21G
 ****
 27  28  29  34  36  39  40  41  42  43  44  45  46 0
 3-21G
 ****


