%nproc=1
%NoSave
%Mem=1900MB
#P OB98/GEN NMR

erre ene a

0 1
  C      -71.183     -18.380     -30.871
  O      -72.035     -17.258     -30.769
  H      -71.548     -19.028     -31.672
  H      -71.186     -18.944     -29.934
  H      -70.166     -18.060     -31.110
  P      -71.709     -16.203     -29.606
  C      -72.961     -17.759     -27.943
  O      -71.786     -17.009     -28.220
  C      -72.675     -18.765     -26.833
  O      -71.720     -19.748     -27.294
  C      -72.056     -18.153     -25.584
  O      -73.017     -17.503     -24.771
  C      -71.462     -19.386     -24.923
  O      -72.443     -20.093     -24.148
  C      -71.005     -20.226     -26.136
  N      -69.559     -20.176     -26.326
  C      -68.798     -20.774     -25.326
  O      -69.290     -21.316     -24.337
  N      -67.440     -20.697     -25.482
  C      -66.785     -20.060     -26.495
  O      -65.564     -19.965     -26.537
  C      -67.641     -19.458     -27.532
  C      -68.968     -19.533     -27.396
  O      -73.014     -15.276     -29.581
  O      -70.458     -15.411     -29.802
  H      -72.827     -14.428     -30.026
  H      -72.049     -20.962     -23.937
  H      -66.871     -21.115     -24.761
  H      -67.153     -18.950     -28.355
  H      -69.620     -19.079     -28.137
  H      -71.292     -21.277     -26.001
  H      -70.650     -19.125     -24.243
  H      -71.241     -17.471     -25.859
  H      -73.611     -19.285     -26.587
  H      -73.269     -18.300     -28.844
  H      -73.762     -17.073     -27.652
  P      -72.512     -16.398     -23.723
  C      -72.250     -18.205     -21.832
  O      -71.659     -17.180     -22.612
  O      -73.878     -16.030     -22.979
  O      -71.807     -15.247     -24.356
  H      -74.471     -16.794     -22.871
  H      -71.523     -18.601     -21.153
  H      -72.600     -18.986     -22.475
  H      -73.073     -17.803     -21.279

 6  7  8  9  10  11  12  13  14  15  16  27  31  32  33  34  35 0
 6-311+G(2d,p)
 ****
 36  37 0
 6-311+G(2d,p)
 ****
 1  2  3  4  5  17  18  19  20  21  22  23  24  25 0
 3-21G
 ****
 26  28  29  30  38  39  40  41  42  43  44  45 0
 3-21G
 ****


