%nproc=1
%NoSave
%Mem=1900MB
#P OB98/GEN NMR

erre ene a

0 1
  C     1076.733      71.457    -414.396
  O     1076.963      72.358    -413.303
  P     1075.781      72.886    -412.351
  C     1075.579      75.317    -413.192
  O     1074.948      74.043    -413.116
  C     1074.730      76.323    -413.968
  O     1073.331      76.120    -413.697
  C     1074.974      77.789    -413.645
  O     1076.184      78.236    -414.245
  C     1073.721      78.424    -414.188
  O     1073.808      78.650    -415.610
  C     1072.636      77.368    -413.867
  N     1071.872      77.708    -412.687
  C     1070.523      78.059    -412.881
  O     1070.073      78.147    -414.028
  N     1069.736      78.327    -411.794
  C     1070.276      78.322    -410.604
  N     1069.435      78.597    -409.569
  C     1071.691      78.041    -410.357
  C     1072.430      77.743    -411.431
  O     1076.241      73.260    -410.979
  O     1074.726      71.676    -412.267
  H     1074.039      77.763    -415.997
  H     1074.296      71.694    -411.411
  H     1072.091      78.080    -409.355
  H     1073.484      77.513    -411.331
  H     1071.973      77.237    -414.716
  H     1073.524      79.409    -413.721
  H     1075.027      77.904    -412.556
  H     1074.894      76.124    -415.050
  H     1068.461      78.789    -409.780
  H     1076.540      75.204    -413.700
  H     1069.744      78.624    -408.610
  H     1075.770      75.677    -412.183
  P     1077.409      78.726    -413.310
  C     1076.946      81.223    -413.610
  O     1077.012      80.129    -412.714
  O     1078.752      78.643    -413.945
  O     1077.328      77.739    -412.042
  H     1078.219      77.603    -411.707
  H     1076.293      81.998    -413.188
  H     1076.519      80.896    -414.572
  H     1077.936      81.636    -413.761
  H     1077.661      71.245    -414.885
  H     1076.057      71.907    -415.093
  H     1076.310      70.547    -414.025

 3  4  5  6  7  8  9  10  11  12  13  23  27  28  29  30  32 0
 6-311+G(2d,p)
 ****
 34  35 0
 6-311+G(2d,p)
 ****
 1  2  14  15  16  17  18  19  20  21  22  24  25  26 0
 3-21G
 ****
 31  33  36  37  38  39  40  41  42  43  44  45  46 0
 3-21G
 ****


