%nproc=1
%NoSave
%Mem=1900MB
#P OB98/GEN NMR

erre ene a

0 1
  C      104.696       2.789      13.236
  O      105.975       2.182      13.185
  P      107.244       3.030      13.668
  C      108.526       3.136      11.409
  O      108.483       2.627      12.732
  C      108.643       1.992      10.400
  O      108.566       2.532       9.046
  C      109.955       1.200      10.503
  O      109.663      -0.164      10.168
  C      110.800       1.823       9.407
  O      111.878       0.999       8.995
  C      109.727       2.053       8.338
  N      110.150       2.991       7.300
  C      110.394       2.474       6.032
  O      110.276       1.285       5.739
  N      110.848       3.369       5.101
  C      111.161       4.677       5.329
  O      111.675       5.396       4.480
  C      110.883       5.168       6.687
  C      110.398       4.318       7.595
  O      107.606       2.375      15.082
  O      107.006       4.499      13.777
  H      112.268       1.402       8.199
  H      107.262       2.924      15.810
  H      111.019       3.014       4.173
  H      111.100       6.208       6.897
  H      110.203       4.649       8.609
  H      109.447       1.099       7.873
  H      111.217       2.771       9.765
  H      110.427       1.259      11.487
  H      107.783       1.323      10.531
  H      109.391       3.794      11.306
  H      107.628       3.732      11.214
  P      110.090      -1.303      11.218
  C      112.208      -2.183       9.967
  O      110.883      -2.419      10.390
  O      108.668      -1.980      11.517
  O      110.766      -0.770      12.439
  H      108.139      -2.110      10.712
  H      112.760      -1.577      10.690
  H      112.194      -1.670       9.003
  H      112.718      -3.142       9.849
  H      103.959       2.098      12.883
  H      104.691       3.663      12.619
  H      104.472       3.064      14.245

 3  4  5  6  7  8  9  10  11  12  13  23  28  29  30  31  32 0
 6-311+G(2d,p)
 ****
 33  34 0
 6-311+G(2d,p)
 ****
 1  2  14  15  16  17  18  19  20  21  22  24  25  26 0
 3-21G
 ****
 27  35  36  37  38  39  40  41  42  43  44  45 0
 3-21G
 ****


