%nproc=1
%NoSave
%Mem=1900MB
#P OB98/GEN NMR

erre ene a

0 1
  C     -343.671    -787.449     174.736
  O     -343.716    -787.674     176.137
  H     -343.660    -788.419     174.228
  H     -342.750    -786.919     174.469
  H     -344.542    -786.881     174.414
  P     -343.689    -786.369     177.065
  C     -345.255    -787.677     178.676
  O     -344.088    -786.863     178.544
  C     -346.128    -787.154     179.819
  O     -346.402    -785.750     179.641
  C     -347.467    -787.847     179.946
  O     -347.378    -789.070     180.660
  C     -348.290    -786.797     180.693
  O     -348.009    -786.835     182.105
  C     -347.773    -785.494     180.069
  N     -351.943    -782.941     178.756
  C     -351.405    -783.182     179.994
  N     -352.105    -782.732     181.053
  N     -350.278    -783.834     180.199
  C     -349.693    -784.268     179.033
  C     -350.125    -784.080     177.753
  C     -351.362    -783.327     177.548
  O     -351.858    -783.024     176.455
  N     -349.267    -784.647     176.842
  C     -348.336    -785.211     177.611
  N     -348.575    -785.017     178.946
  O     -344.984    -785.551     176.589
  O     -342.451    -785.531     176.980
  H     -348.641    -786.242     182.577
  H     -344.821    -784.589     176.710
  H     -352.801    -782.432     178.663
  H     -347.480    -785.755     177.210
  H     -347.745    -784.672     180.791
  H     -349.360    -786.971     180.567
  H     -353.093    -782.549     180.999
  H     -347.921    -788.033     178.941
  H     -351.716    -782.931     181.984
  H     -345.545    -787.255     180.750
  H     -344.955    -788.712     178.902
  H     -345.807    -787.660     177.745
  P     -348.406    -790.225     180.318
  C     -347.321    -791.918     181.982
  O     -348.477    -791.187     181.616
  O     -347.650    -791.124     179.242
  O     -349.741    -789.751     179.819
  H     -348.278    -791.707     178.761
  H     -347.529    -792.502     182.854
  H     -346.521    -791.239     182.190
  H     -347.039    -792.566     181.178

 6  7  8  9  10  11  12  13  14  15  26  29  33  34 0
 6-311+G(2d,p)
 ****
 36  38  39  40  41 0
 6-311+G(2d,p)
 ****
 1  2  3  4  5  16  17  18  19  20  21  22  23  24  25 0
 3-21G
 ****
 27  28  30  31  32  35  37  42  43  44  45  46  47 0
 3-21G
 ****
 48  49 0
 3-21G
 ****


