%nproc=1
%NoSave
%Mem=1900MB
#P OB98/GEN NMR

erre ene a

0 1
  C     -658.350     498.128    -478.986
  O     -658.837     497.353    -477.900
  P     -657.787     496.915    -476.767
  C     -658.180     498.986    -475.239
  O     -657.282     498.291    -476.099
  C     -657.690     498.929    -473.796
  O     -656.357     499.458    -473.721
  C     -658.519     499.754    -472.813
  O     -659.686     499.065    -472.407
  C     -657.532     499.898    -471.665
  O     -657.567     498.716    -470.843
  C     -656.180     500.017    -472.388
  N     -652.232     503.100    -471.644
  C     -652.349     501.741    -471.413
  N     -651.248     501.111    -470.942
  N     -653.449     501.061    -471.626
  C     -654.460     501.820    -472.124
  C     -654.461     503.162    -472.395
  C     -653.261     503.916    -472.107
  O     -653.113     505.129    -472.231
  N     -655.667     503.569    -472.922
  C     -656.373     502.451    -473.000
  N     -655.688     501.373    -472.512
  O     -656.516     496.437    -477.618
  O     -658.258     495.864    -475.826
  H     -656.769     498.733    -470.288
  H     -655.986     495.805    -477.093
  H     -651.359     503.566    -471.474
  H     -657.373     502.401    -473.415
  H     -655.406     499.412    -471.891
  H     -657.768     500.744    -471.010
  H     -650.348     501.561    -470.885
  H     -658.744     500.742    -473.233
  H     -651.311     500.108    -470.809
  H     -657.658     497.871    -473.482
  H     -659.168     498.516    -475.304
  H     -658.260     500.020    -475.574
  P     -661.077     499.871    -472.553
  C     -662.185     498.068    -474.072
  O     -661.691     499.394    -473.962
  O     -660.606     501.373    -472.838
  O     -661.975     499.768    -471.375
  H     -661.295     502.011    -472.552
  H     -662.672     497.742    -473.145
  H     -661.361     497.390    -474.313
  H     -662.920     498.040    -474.880
  H     -659.154     498.345    -479.658
  H     -657.591     497.580    -479.503
  H     -657.939     499.043    -478.615

 3  4  5  6  7  8  9  10  11  12  23  26  30  31  33  0
 6-311+G(2d,p)
 ****
 35  36  37  38 0
 6-311+G(2d,p)
 ****
 1  2  13  14  15  16  17  18  19  20  21  22  24  25  27  28  29 0
 3-21G
 ****
 32  34  39  40  41  42  43  44  45  46  47  48  49 0
 3-21G
 ****


