%nproc=1
%NoSave
%Mem=1900MB
#P OB98/GEN NMR

erre ene a

0 1
  C      714.396    -183.640    -300.474
  O      713.609    -182.644    -299.862
  H      715.255    -183.163    -300.962
  H      713.820    -184.188    -301.228
  H      714.768    -184.343    -299.716
  P      712.163    -183.057    -299.296
  C      709.939    -183.826    -300.377
  O      711.252    -183.304    -300.596
  C      708.928    -183.225    -301.352
  O      708.739    -181.816    -301.072
  C      709.384    -183.280    -302.806
  O      709.402    -184.588    -303.351
  C      708.513    -182.216    -303.465
  O      707.228    -182.683    -303.866
  C      708.354    -181.184    -302.311
  N      709.119    -179.965    -302.563
  C      708.711    -179.220    -303.662
  O      707.792    -179.554    -304.413
  N      709.439    -178.079    -303.908
  C      710.523    -177.664    -303.200
  O      711.156    -176.655    -303.503
  C      710.918    -178.504    -302.076
  C      710.204    -179.601    -301.797
  O      711.553    -182.117    -298.297
  O      712.390    -184.539    -298.730
  H      707.377    -183.377    -304.542
  H      711.653    -184.801    -298.124
  H      709.155    -177.521    -304.698
  H      711.791    -178.202    -301.480
  H      710.485    -180.245    -300.961
  H      707.300    -180.909    -302.202
  H      708.998    -181.804    -304.351
  H      710.414    -182.922    -302.860
  H      707.965    -183.723    -301.204
  H      709.647    -183.564    -299.344
  H      709.960    -184.926    -300.460
  P      710.697    -185.240    -304.014
  C      712.246    -184.749    -306.057
  O      711.185    -184.291    -305.218
  O      710.669    -186.716    -304.238
  O      711.818    -184.949    -302.879
  H      712.437    -185.701    -302.883
  H      712.453    -184.012    -306.804
  H      711.957    -185.664    -306.530
  H      713.122    -184.914    -305.466

 6  7  8  9  10  11  12  13  14  15  16  26  31  32  33  34  35 0
 6-311+G(2d,p)
 ****
 36  37 0
 6-311+G(2d,p)
 ****
 1  2  3  4  5  17  18  19  20  21  22  23  24  25 0
 3-21G
 ****
 27  28  29  30  38  39  40  41  42  43  44  45 0
 3-21G
 ****


