%nproc=1
%NoSave
%Mem=1900MB
#P OB98/GEN NMR

erre ene a

0 1
  C     -267.019     260.569     -62.375
  O     -265.680     260.929     -62.080
  H     -267.198     259.559     -61.999
  H     -267.196     260.578     -63.455
  H     -267.707     261.256     -61.876
  P     -265.085     262.251     -62.770
  C     -264.443     260.784     -64.796
  O     -265.117     261.958     -64.352
  C     -263.807     260.992     -66.166
  O     -264.820     261.131     -67.189
  C     -262.966     262.255     -66.279
  O     -261.793     262.256     -65.498
  C     -262.854     262.427     -67.786
  O     -261.823     261.621     -68.353
  C     -264.243     261.915     -68.255
  N     -265.124     263.006     -68.664
  C     -264.973     263.455     -69.967
  O     -264.135     263.008     -70.751
  N     -265.802     264.487     -70.341
  C     -266.709     265.116     -69.539
  O     -267.407     266.043     -69.930
  C     -266.798     264.615     -68.157
  C     -266.019     263.601     -67.784
  O     -263.745     262.698     -62.263
  O     -266.242     263.340     -62.580
  H     -262.051     260.695     -68.171
  H     -265.901     264.257     -62.741
  H     -265.715     264.816     -71.293
  H     -267.500     265.102     -67.492
  H     -266.068     263.208     -66.772
  H     -264.129     261.238     -69.114
  H     -262.650     263.464     -68.073
  H     -263.567     263.101     -65.917
  H     -263.216     260.101     -66.409
  H     -265.184     259.975     -64.861
  H     -263.678     260.503     -64.062
  P     -261.409     263.419     -64.475
  C     -259.517     264.544     -65.893
  O     -260.811     264.654     -65.307
  O     -260.701     263.011     -63.227
  O     -262.864     263.980     -64.049
  H     -262.800     264.264     -63.117
  H     -259.279     265.452     -66.406
  H     -259.508     263.730     -66.587
  H     -258.792     264.367     -65.126

 6  7  8  9  10  11  12  13  14  15  16  26  31  32  33  34  35 0
 6-311+G(2d,p)
 ****
 36  37 0
 6-311+G(2d,p)
 ****
 1  2  3  4  5  17  18  19  20  21  22  23  24  25 0
 3-21G
 ****
 27  28  29  30  38  39  40  41  42  43  44  45 0
 3-21G
 ****


