%nproc=1
%NoSave
%Mem=1900MB
#P OB98/GEN NMR

erre ene a

0 1
  C      -33.494     -66.916     144.112
  O      -33.044     -66.519     142.832
  H      -32.700     -67.490     144.598
  H      -34.378     -67.551     144.015
  H      -33.724     -66.041     144.724
  P      -33.991     -65.505     142.019
  C      -34.369     -67.360     140.202
  O      -34.933     -66.434     141.114
  C      -35.134     -67.341     138.878
  O      -36.499     -67.759     139.123
  C      -35.178     -65.967     138.210
  O      -35.090     -66.146     136.795
  C      -36.552     -65.435     138.580
  O      -37.008     -64.449     137.656
  C      -37.379     -66.727     138.631
  N      -38.567     -66.594     139.472
  C      -39.772     -66.319     138.819
  O      -39.796     -66.179     137.595
  N      -40.912     -66.165     139.565
  C      -40.844     -66.211     140.860
  N      -42.005     -66.029     141.545
  C      -39.584     -66.445     141.594
  C      -38.500     -66.636     140.846
  O      -32.961     -64.869     140.972
  O      -34.700     -64.511     142.874
  H      -37.225     -64.903     136.811
  H      -32.346     -65.516     140.590
  H      -39.576     -66.459     142.674
  H      -37.534     -66.824     141.302
  H      -37.701     -67.018     137.623
  H      -36.516     -64.972     139.574
  H      -34.387     -65.297     138.544
  H      -34.691     -68.091     138.212
  H      -42.843     -65.852     141.005
  H      -34.394     -68.370     140.622
  H      -42.060     -65.993     142.552
  H      -33.323     -67.083     140.040
  P      -33.664     -66.452     136.132
  C      -34.064     -65.240     133.892
  O      -33.310     -65.281     135.093
  O      -33.475     -67.837     135.612
  O      -32.641     -66.158     137.337
  H      -31.930     -66.826     137.296
  H      -33.733     -64.419     133.291
  H      -35.101     -65.115     134.126
  H      -33.928     -66.155     133.354

 6  7  8  9  10  11  12  13  14  15  16  26  30  31  32  33  35 0
 6-311+G(2d,p)
 ****
 37  38 0
 6-311+G(2d,p)
 ****
 1  2  3  4  5  17  18  19  20  21  22  23  24  25 0
 3-21G
 ****
 27  28  29  34  36  39  40  41  42  43  44  45  46 0
 3-21G
 ****


