%nproc=1
%NoSave
%Mem=1900MB
#P OB98/GEN NMR

erre ene a

0 1
  C       37.932    -303.024     -96.838
  O       36.983    -303.355     -97.850
  P       37.408    -303.103     -99.375
  C       36.301    -300.739     -99.653
  O       37.482    -301.518     -99.605
  C       36.611    -299.248     -99.425
  O       37.435    -298.777    -100.524
  C       35.399    -298.325     -99.403
  O       35.769    -297.094     -98.775
  C       35.164    -298.089    -100.879
  O       34.347    -296.941    -101.107
  C       36.603    -298.009    -101.434
  N       36.739    -298.534    -102.810
  C       36.496    -297.671    -103.875
  O       36.172    -296.493    -103.745
  N       36.598    -298.217    -105.128
  C       36.951    -299.499    -105.415
  O       36.941    -299.959    -106.551
  C       37.331    -300.326    -104.263
  C       37.200    -299.819    -103.035
  O       36.120    -303.559    -100.203
  O       38.635    -303.842     -99.787
  H       34.718    -296.220    -100.547
  H       36.283    -304.419    -100.633
  H       36.359    -297.619    -105.905
  H       37.683    -301.333    -104.457
  H       37.458    -300.427    -102.171
  H       36.966    -296.973    -101.445
  H       34.641    -298.947    -101.312
  H       34.518    -298.743     -98.910
  H       37.196    -299.139     -98.506
  H       35.590    -301.097     -98.907
  H       35.820    -300.863    -100.631
  P       35.147    -296.768     -97.335
  C       33.437    -294.893     -97.748
  O       33.641    -296.285     -97.593
  O       35.967    -295.885     -96.453
  O       34.945    -298.225     -96.695
  H       34.857    -298.147     -95.727
  H       32.573    -294.735     -98.397
  H       34.312    -294.406     -98.193
  H       33.235    -294.449     -96.770
  H       37.518    -303.242     -95.876
  H       38.168    -301.982     -96.897
  H       38.822    -303.600     -96.982

 3  4  5  6  7  8  9  10  11  12  13  23  28  29  30  31  32 0
 6-311+G(2d,p)
 ****
 33  34 0
 6-311+G(2d,p)
 ****
 1  2  14  15  16  17  18  19  20  21  22  24  25  26  27 0
 3-21G
 ****
 35  36  37  38  39  40  41  42  43  44  45 0
 3-21G
 ****


