%nproc=1
%NoSave
%Mem=1900MB
#P OB98/GEN NMR

erre ene a

0 1
  C      194.295    -409.524    -869.183
  O      192.983    -409.013    -868.982
  P      191.789    -410.079    -868.847
  C      190.156    -408.951    -870.541
  O      191.024    -410.055    -870.251
  C      190.357    -408.481    -871.984
  O      191.763    -408.433    -872.295
  C      189.740    -409.394    -873.027
  O      188.336    -409.196    -873.104
  C      190.498    -408.965    -874.284
  O      189.858    -407.829    -874.907
  C      191.887    -408.577    -873.722
  N      192.920    -409.533    -874.078
  C      193.309    -409.559    -875.438
  O      192.749    -408.790    -876.231
  N      194.266    -410.438    -875.832
  C      194.794    -411.252    -874.961
  N      195.736    -412.117    -875.416
  C      194.398    -411.296    -873.547
  C      193.469    -410.423    -873.164
  O      190.769    -409.349    -867.846
  O      192.199    -411.428    -868.351
  H      188.923    -408.084    -875.024
  H      190.222    -410.004    -867.359
  H      194.872    -411.982    -872.865
  H      193.110    -410.366    -872.148
  H      192.183    -407.585    -874.107
  H      190.529    -409.765    -875.023
  H      189.966    -410.451    -872.807
  H      189.955    -407.464    -872.070
  H      195.985    -412.075    -876.394
  H      190.380    -408.126    -869.862
  H      196.227    -412.776    -874.818
  H      189.114    -409.269    -870.372
  P      187.390    -410.383    -872.593
  C      187.314    -411.215    -875.028
  O      187.592    -411.553    -873.684
  O      185.922    -409.837    -872.962
  O      187.509    -410.784    -871.162
  H      185.252    -410.447    -872.607
  H      187.622    -412.028    -875.670
  H      187.844    -410.299    -875.321
  H      186.221    -411.064    -875.150
  H      194.987    -408.711    -869.255
  H      194.321    -410.096    -870.087
  H      194.564    -410.150    -868.358

 3  4  5  6  7  8  9  10  11  12  13  21  23  27  28  29  30  32 0
 6-311+G(2d,p)
 ****
 34  35 0
 6-311+G(2d,p)
 ****
 1  2  14  15  16  17  18  19  20  22  24  25  26 0
 3-21G
 ****
 31  33  36  37  38  39  40  41  42  43  44  45  46 0
 3-21G
 ****


