%nproc=1
%NoSave
%Mem=1900MB
#P OB98/GEN NMR

erre ene a

0 1
  C     1836.248    -105.037     157.502
  O     1835.223    -104.703     158.424
  P     1835.223    -105.457     159.860
  C     1832.715    -104.727     159.777
  O     1833.877    -105.013     160.589
  C     1831.461    -104.667     160.638
  O     1831.047    -105.992     161.009
  C     1831.648    -103.907     161.954
  O     1831.564    -102.491     161.757
  C     1830.463    -104.420     162.733
  O     1829.256    -103.737     162.353
  C     1830.404    -105.904     162.324
  N     1829.819    -108.866     166.441
  C     1828.983    -108.065     165.808
  N     1829.199    -107.280     164.697
  C     1830.483    -107.397     164.330
  C     1831.499    -108.165     164.889
  C     1831.122    -108.948     166.010
  N     1831.999    -109.815     166.668
  N     1832.668    -108.017     164.212
  C     1832.405    -107.197     163.223
  N     1831.089    -106.801     163.247
  O     1836.376    -104.674     160.663
  O     1835.493    -106.932     159.798
  H     1829.149    -103.852     161.390
  H     1836.721    -105.235     161.376
  H     1827.971    -108.005     166.214
  H     1833.111    -106.861     162.478
  H     1829.399    -106.273     162.212
  H     1830.565    -104.263     163.826
  H     1832.582    -104.193     162.438
  H     1830.659    -104.218     160.035
  H     1832.612    -105.548     159.061
  H     1831.594    -110.459     167.316
  H     1832.870    -110.003     166.209
  H     1832.887    -103.803     159.231
  P     1832.959    -101.676     161.809
  C     1831.718    -100.000     163.392
  O     1832.526    -100.198     162.244
  O     1833.323    -101.542     160.271
  O     1834.011    -102.336     162.632
  H     1834.298    -101.432     160.180
  H     1831.803     -98.957     163.722
  H     1832.044    -100.660     164.230
  H     1830.675    -100.242     163.150
  H     1836.122    -104.466     156.606
  H     1836.193    -106.080     157.271
  H     1837.202    -104.817     157.934

 3  4  5  6  7  8  9  10  11  12  22  25  29  30  31  32 0
 6-311+G(2d,p)
 ****
 33  36  37 0
 6-311+G(2d,p)
 ****
 1  2  13  14  15  16  17  18  19  20  21  23  24  26 0
 3-21G
 ****
 27  28  34  35  38  39  40  41  42  43  44  45  46  47  48 0
 3-21G
 ****


