%nproc=1
%NoSave
%Mem=1900MB
#P OB98/GEN NMR

erre ene a

0 1
  C      331.461     761.111    1091.097
  O      331.847     760.835    1089.751
  P      333.311     761.288    1089.299
  C      334.949     760.568    1087.382
  O      333.785     760.280    1088.152
  C      334.884     759.873    1086.022
  O      334.957     758.443    1086.174
  C      333.557     760.128    1085.272
  O      333.562     761.398    1084.656
  C      333.558     758.963    1084.276
  O      334.329     759.259    1083.124
  C      334.202     757.840    1085.104
  N      333.229     756.874    1085.603
  C      332.316     756.379    1084.679
  O      332.307     756.755    1083.505
  N      331.385     755.488    1085.153
  C      331.264     755.058    1086.436
  O      330.380     754.310    1086.808
  C      332.234     755.642    1087.386
  C      333.157     756.515    1086.938
  O      334.249     760.909    1090.548
  O      333.442     762.724    1088.928
  H      334.269     758.489    1082.541
  H      334.969     761.578    1090.641
  H      330.753     755.092    1084.476
  H      332.173     755.344    1088.426
  H      333.881     756.937    1087.633
  H      334.924     757.303    1084.506
  H      332.539     758.740    1083.940
  H      332.719     760.030    1085.969
  H      335.744     760.205    1085.430
  H      335.839     760.217    1087.931
  H      335.018     761.654    1087.256
  P      332.361     762.393    1085.045
  C      332.245     764.986    1085.444
  O      333.015     763.870    1085.007
  O      332.200     762.049    1086.617
  O      331.131     762.188    1084.230
  H      333.045     761.826    1087.033
  H      331.601     764.705    1086.284
  H      331.638     765.353    1084.600
  H      332.942     765.778    1085.762
  H      330.465     760.757    1091.262
  H      331.497     762.166    1091.269
  H      332.131     760.617    1091.769

 3  4  5  6  7  8  9  10  11  12  13  23  28  29  30  31  32 0
 6-311+G(2d,p)
 ****
 33  34 0
 6-311+G(2d,p)
 ****
 1  2  14  15  16  17  18  19  20  21  22  24  25  26 0
 3-21G
 ****
 27  35  36  37  38  39  40  41  42  43  44  45 0
 3-21G
 ****


