%nproc=1
%NoSave
%Mem=1900MB
#P OB98/GEN NMR

erre ene a

0 1
  C     -351.079     111.139    -154.492
  O     -350.300     112.308    -154.770
  P     -348.855     112.122    -155.445
  C     -347.450     111.811    -153.287
  O     -347.961     111.200    -154.477
  C     -346.080     111.224    -152.927
  O     -345.129     111.578    -153.965
  C     -345.470     111.750    -151.611
  O     -345.784     111.055    -150.405
  C     -343.983     111.518    -151.871
  O     -343.629     110.160    -151.567
  C     -343.821     111.769    -153.365
  N     -339.727     114.849    -153.266
  C     -339.895     113.553    -152.889
  N     -341.026     112.812    -152.955
  C     -342.036     113.516    -153.473
  C     -342.007     114.838    -153.909
  C     -340.794     115.516    -153.792
  N     -340.604     116.834    -154.156
  N     -343.253     115.228    -154.392
  C     -344.019     114.157    -154.225
  N     -343.331     113.099    -153.684
  O     -348.200     113.367    -155.939
  O     -349.167     111.116    -156.663
  H     -342.693     110.062    -151.816
  H     -348.629     111.370    -157.436
  H     -339.017     113.066    -152.496
  H     -345.075     114.120    -154.466
  H     -343.139     111.053    -153.841
  H     -343.355     112.156    -151.231
  H     -345.666     112.810    -151.495
  H     -346.147     110.117    -152.884
  H     -348.150     111.632    -152.472
  H     -339.706     117.256    -154.000
  H     -341.401     117.358    -154.499
  H     -347.418     112.878    -153.461
  P     -346.969     111.572    -149.451
  C     -345.442     112.755    -147.658
  O     -346.406     112.873    -148.700
  O     -347.521     110.517    -148.523
  O     -348.026     112.171    -150.472
  H     -347.738     112.989    -150.938
  H     -345.034     113.743    -147.451
  H     -344.638     112.077    -147.952
  H     -345.944     112.374    -146.763
  H     -352.008     111.427    -154.047
  H     -350.542     110.505    -153.818
  H     -351.269     110.612    -155.404

 3  4  5  6  7  8  9  10  11  12  22  25  29  30  31  32 0
 6-311+G(2d,p)
 ****
 33  36  37 0
 6-311+G(2d,p)
 ****
 1  2  13  14  15  16  17  18  19  20  21  23  24  26 0
 3-21G
 ****
 27  28  34  35  38  39  40  41  42  43  44  45  46  47  48 0
 3-21G
 ****


