%nproc=1
%NoSave
%Mem=1900MB
#P OB98/GEN NMR

erre ene a

0 1
  C      -44.738     144.007     110.373
  O      -43.499     144.639     110.149
  P      -42.337     144.018     109.253
  C      -41.804     146.247     107.996
  O      -41.334     145.195     108.829
  C      -40.643     147.130     107.515
  O      -39.954     147.657     108.677
  C      -39.612     146.318     106.714
  O      -39.115     146.987     105.563
  C      -38.599     145.912     107.776
  O      -37.335     145.545     107.246
  C      -38.611     147.128     108.697
  N      -34.972     145.503     111.846
  C      -34.875     145.853     110.514
  N      -33.706     145.559     109.906
  N      -35.851     146.403     109.841
  C      -36.995     146.532     110.551
  C      -37.209     146.224     111.874
  C      -36.114     145.646     112.616
  O      -36.187     145.216     113.767
  N      -38.514     146.424     112.241
  C      -39.101     146.822     111.130
  N      -38.226     146.870     110.069
  O      -42.751     143.036     108.205
  O      -41.467     143.218     110.355
  H      -37.478     144.802     106.632
  H      -41.109     142.422     109.915
  H      -34.207     145.007     112.290
  H      -40.154     147.056     111.029
  H      -37.939     147.909     108.336
  H      -38.997     145.029     108.289
  H      -32.994     145.003     110.358
  H      -40.074     145.414     106.301
  H      -33.698     145.573     108.890
  H      -41.043     147.977     106.950
  H      -42.497     146.837     108.607
  H      -42.363     145.847     107.148
  P      -38.584     146.363     104.194
  C      -40.094     147.159     102.282
  O      -38.901     147.389     103.007
  O      -39.569     145.143     103.882
  O      -37.168     145.885     104.235
  H      -39.058     144.394     103.519
  H      -40.055     147.735     101.352
  H      -40.952     147.493     102.869
  H      -40.203     146.098     102.036
  H      -45.343     144.623     111.005
  H      -44.576     143.061     110.846
  H      -45.236     143.857     109.438

 3  4  5  6  7  8  9  10  11  12  23  26  30  31 0
 6-311+G(2d,p)
 ****
 33  35  36  37  38 0
 6-311+G(2d,p)
 ****
 1  2  13  14  15  16  17  18  19  20  21  22  24  25 0
 3-21G
 ****
 27  28  29  32  34  39  40  41  42  43  44  45  46  47  48  49 0
 3-21G
 ****


