%nproc=1
%NoSave
%Mem=1900MB
#P OB98/GEN NMR

erre ene a

0 1
  C     -623.420     158.088    -184.769
  O     -624.056     158.846    -183.761
  P     -625.116     158.165    -182.762
  C     -623.477     157.856    -180.805
  O     -624.276     157.204    -181.788
  C     -623.888     157.421    -179.399
  O     -622.895     157.899    -178.456
  C     -625.241     157.971    -178.966
  O     -625.907     156.995    -178.166
  C     -624.894     159.161    -178.076
  O     -625.942     159.426    -177.129
  C     -623.575     158.695    -177.464
  N     -622.502     162.217    -173.886
  C     -623.422     161.231    -173.921
  N     -623.666     160.349    -174.914
  C     -622.800     160.523    -175.929
  C     -621.813     161.493    -176.033
  C     -621.679     162.372    -174.951
  N     -620.730     163.377    -174.908
  N     -621.148     161.386    -177.243
  C     -621.712     160.362    -177.842
  N     -622.713     159.804    -177.089
  O     -626.270     157.506    -183.438
  O     -625.580     159.350    -181.794
  H     -626.667     159.872    -177.622
  H     -626.534     159.266    -181.598
  H     -624.038     161.136    -173.034
  H     -621.451     159.996    -178.822
  H     -623.737     158.069    -176.567
  H     -624.766     160.059    -178.690
  H     -625.875     158.261    -179.812
  H     -623.879     156.330    -179.356
  H     -623.620     158.937    -180.908
  H     -620.627     163.877    -174.041
  H     -620.005     163.379    -175.614
  H     -622.419     157.633    -180.987
  P     -627.427     156.668    -178.581
  C     -626.712     154.972    -180.427
  O     -627.340     156.198    -180.108
  O     -628.360     157.790    -178.265
  O     -627.698     155.323    -177.745
  H     -626.854     154.845    -177.550
  H     -626.721     154.850    -181.520
  H     -627.268     154.141    -179.983
  H     -625.677     154.970    -180.071
  H     -622.756     158.718    -185.323
  H     -624.158     157.680    -185.428
  H     -622.864     157.292    -184.319

 3  4  5  6  7  8  9  10  11  12  22  25  29  30  31  32 0
 6-311+G(2d,p)
 ****
 33  36  37 0
 6-311+G(2d,p)
 ****
 1  2  13  14  15  16  17  18  19  20  21  23  24  26 0
 3-21G
 ****
 27  28  34  35  38  39  40  41  42  43  44  45  46  47  48 0
 3-21G
 ****


