%nproc=1
%NoSave
%Mem=1900MB
#P OB98/GEN NMR

erre ene a

0 1
  C      127.922      78.084    -228.537
  O      127.948      77.720    -229.903
  H      126.923      78.451    -228.294
  H      128.644      78.880    -228.340
  H      128.138      77.219    -227.905
  P      129.315      77.147    -230.516
  C      129.838      75.171    -232.109
  O      128.868      75.815    -231.297
  C      129.420      73.732    -232.392
  O      129.367      72.952    -231.177
  C      128.031      73.577    -233.005
  O      127.961      73.956    -234.368
  C      127.826      72.085    -232.809
  O      128.600      71.359    -233.780
  C      128.390      71.893    -231.382
  N      127.350      71.948    -230.354
  C      126.288      71.045    -230.489
  O      126.245      70.263    -231.438
  N      125.274      71.072    -229.562
  C      125.307      71.941    -228.599
  N      124.273      71.927    -227.712
  C      126.395      72.921    -228.430
  C      127.375      72.868    -229.330
  O      130.446      76.978    -229.553
  O      129.653      78.132    -231.731
  H      128.325      70.427    -233.723
  H      130.500      77.827    -232.140
  H      126.362      73.642    -227.627
  H      128.207      73.562    -229.276
  H      128.924      70.939    -231.296
  H      126.786      71.774    -232.929
  H      127.278      74.111    -232.412
  H      130.192      73.283    -233.031
  H      123.541      71.244    -227.854
  H      130.798      75.205    -231.586
  H      124.179      72.615    -226.976
  H      129.933      75.697    -233.064
  P      126.532      74.454    -234.913
  C      125.787      75.690    -237.090
  O      126.834      75.378    -236.186
  O      126.053      75.481    -233.787
  O      125.536      73.366    -235.164
  H      125.428      75.054    -233.173
  H      126.166      76.312    -237.874
  H      125.009      76.207    -236.569
  H      125.396      74.786    -237.509

 6  7  8  9  10  11  12  13  14  15  16  26  30  31  32  33  35 0
 6-311+G(2d,p)
 ****
 37  38 0
 6-311+G(2d,p)
 ****
 1  2  3  4  5  17  18  19  20  21  22  23  24  25 0
 3-21G
 ****
 27  28  29  34  36  39  40  41  42  43  44  45  46 0
 3-21G
 ****


