%nproc=1
%NoSave
%Mem=1900MB
#P OB98/GEN NMR

erre ene a

0 1
  C       13.531      18.706      -8.039
  O       14.059      20.036      -8.085
  P       13.296      21.102      -9.010
  C       13.168      23.033      -7.241
  O       13.728      22.542      -8.451
  C       14.119      24.040      -6.597
  O       15.118      23.362      -5.797
  C       14.899      24.882      -7.593
  O       14.081      25.879      -8.184
  C       16.016      25.417      -6.705
  O       15.550      26.538      -5.935
  C       16.287      24.216      -5.775
  N       17.494      23.479      -6.131
  C       18.595      23.687      -5.306
  O       18.582      24.458      -4.347
  N       19.726      22.989      -5.634
  C       19.867      22.148      -6.698
  O       20.905      21.542      -6.939
  C       18.687      22.009      -7.563
  C       17.568      22.669      -7.246
  O       11.789      20.917      -8.514
  O       13.518      20.874     -10.466
  H       11.722      20.724      -7.563
  H       15.128      27.151      -6.568
  H       20.532      23.115      -5.042
  H       18.769      21.368      -8.433
  H       16.687      22.582      -7.875
  H       16.392      24.556      -4.738
  H       16.883      25.756      -7.280
  H       15.322      24.241      -8.375
  H       13.529      24.687      -5.934
  H       12.998      22.205      -6.547
  H       12.197      23.485      -7.460
  P       14.647      26.594      -9.507
  C       12.610      26.047     -11.053
  O       13.369      27.024     -10.376
  O       15.252      25.343     -10.301
  O       15.630      27.681      -9.225
  H       14.668      24.567     -10.295
  H       11.625      26.466     -11.279
  H       12.476      25.150     -10.443
  H       13.104      25.784     -11.989
  H       14.133      18.106      -7.389
  H       13.539      18.285      -9.023
  H       12.527      18.733      -7.671

 3  4  5  6  7  8  9  10  11  12  13  24  28  29  30  31  32 0
 6-311+G(2d,p)
 ****
 33  34 0
 6-311+G(2d,p)
 ****
 1  2  14  15  16  17  18  19  20  21  22  23  25  26  27 0
 3-21G
 ****
 35  36  37  38  39  40  41  42  43  44  45 0
 3-21G
 ****


