%nproc=1
%NoSave
%Mem=1900MB
#P OB98/GEN NMR

erre ene a

0 1
  C      -74.078     -64.874      19.947
  O      -74.004     -66.270      19.748
  H      -73.769     -64.648      20.971
  H      -75.104     -64.525      19.805
  H      -73.409     -64.359      19.254
  P      -74.474     -66.825      18.319
  C      -72.442     -65.556      17.316
  O      -73.826     -65.858      17.216
  C      -71.925     -65.070      15.967
  O      -70.589     -64.539      16.115
  C      -71.812     -66.164      14.914
  O      -73.065     -66.486      14.337
  C      -70.858     -65.515      13.926
  O      -71.551     -64.646      13.017
  C      -69.917     -64.712      14.851
  N      -68.617     -65.356      15.005
  C      -67.602     -64.870      14.187
  O      -67.767     -63.957      13.378
  N      -66.391     -65.495      14.301
  C      -66.113     -66.560      15.107
  O      -65.026     -67.121      15.109
  C      -67.221     -67.022      15.960
  C      -68.406     -66.415      15.864
  O      -76.031     -66.456      18.283
  O      -74.235     -68.280      18.096
  H      -76.566     -67.252      18.462
  H      -72.068     -64.029      13.570
  H      -65.646     -65.163      13.709
  H      -67.032     -67.862      16.616
  H      -69.243     -66.752      16.468
  H      -69.749     -63.707      14.444
  H      -70.341     -66.259      13.320
  H      -71.331     -67.052      15.340
  H      -72.579     -64.261      15.615
  H      -71.892     -66.457      17.607
  H      -72.299     -64.792      18.087
  P      -73.152     -67.746      13.350
  C      -72.690     -69.496      15.253
  O      -72.288     -68.915      14.026
  O      -72.247     -67.247      12.131
  O      -74.546     -68.127      12.985
  H      -71.491     -66.706      12.416
  H      -71.988     -70.252      15.537
  H      -73.660     -69.934      15.139
  H      -72.726     -68.741      16.010

 6  7  8  9  10  11  12  13  14  15  16  27  31  32  33  34  35 0
 6-311+G(2d,p)
 ****
 36  37 0
 6-311+G(2d,p)
 ****
 1  2  3  4  5  17  18  19  20  21  22  23  24  25 0
 3-21G
 ****
 26  28  29  30  38  39  40  41  42  43  44  45 0
 3-21G
 ****


