%nproc=1
%NoSave
%Mem=1900MB
#P OB98/GEN NMR

erre ene a

0 1
  C      534.873     666.624     185.429
  O      533.670     667.358     185.314
  H      535.613     667.054     184.748
  H      534.711     665.578     185.146
  H      535.253     666.684     186.450
  P      532.410     666.826     186.154
  C      530.853     668.037     184.457
  O      531.149     666.832     185.163
  C      529.479     667.923     183.808
  O      529.521     666.955     182.728
  C      528.387     667.414     184.740
  O      527.899     668.432     185.610
  C      527.338     666.954     183.754
  O      526.502     668.031     183.305
  C      528.201     666.401     182.590
  N      528.222     664.939     182.576
  C      527.106     664.323     182.000
  O      526.147     664.950     181.530
  N      527.101     662.951     182.032
  C      528.056     662.158     182.597
  O      527.964     660.935     182.627
  C      529.199     662.859     183.202
  C      529.225     664.195     183.167
  O      532.108     668.025     187.163
  O      532.640     665.534     186.871
  H      532.396     667.783     188.062
  H      527.112     668.720     182.968
  H      526.308     662.502     181.610
  H      529.964     662.259     183.668
  H      530.049     664.738     183.620
  H      527.806     666.749     181.631
  H      526.682     666.195     184.191
  H      528.751     666.551     185.313
  H      529.199     668.898     183.394
  H      531.600     668.200     183.673
  H      530.888     668.873     185.162
  P      527.185     667.975     186.975
  C      526.351     670.422     187.505
  O      526.034     669.069     187.250
  O      528.330     668.317     188.035
  O      526.739     666.549     186.958
  H      528.908     669.036     187.723
  H      525.449     670.977     187.660
  H      526.880     670.828     186.668
  H      526.964     670.486     188.380

 6  7  8  9  10  11  12  13  14  15  16  27  31  32  33  34  35 0
 6-311+G(2d,p)
 ****
 36  37 0
 6-311+G(2d,p)
 ****
 1  2  3  4  5  17  18  19  20  21  22  23  24  25 0
 3-21G
 ****
 26  28  29  30  38  39  40  41  42  43  44  45 0
 3-21G
 ****


