%nproc=1
%NoSave
%Mem=1900MB
#P OB98/GEN NMR

erre ene a

0 1
  C      150.766     316.537     245.049
  O      150.130     315.907     243.956
  H      150.038     316.756     245.835
  H      151.526     315.862     245.453
  H      151.251     317.463     244.723
  P      148.948     316.723     243.240
  C      150.597     317.525     241.393
  O      149.684     317.890     242.417
  C      150.817     318.713     240.465
  O      151.774     318.372     239.435
  C      149.560     319.161     239.729
  O      148.735     320.000     240.521
  C      150.168     319.923     238.566
  O      150.620     321.214     239.013
  C      151.369     319.033     238.207
  N      149.237     318.180     233.632
  C      149.433     319.315     234.338
  N      150.029     319.459     235.539
  C      150.453     318.275     236.006
  C      150.328     317.036     235.398
  C      149.680     317.012     234.151
  N      149.448     315.852     233.444
  N      150.867     316.047     236.196
  C      151.323     316.681     237.258
  N      151.066     318.025     237.204
  O      148.250     317.516     244.441
  O      147.987     315.910     242.437
  H      151.171     321.587     238.298
  H      147.384     317.868     244.159
  H      149.063     320.225     233.876
  H      151.831     316.215     238.091
  H      152.227     319.610     237.840
  H      149.457     320.094     237.754
  H      148.995     318.304     239.339
  H      151.243     319.535     241.054
  H      150.180     316.686     240.825
  H      148.847     315.918     232.636
  H      149.639     314.967     233.888
  H      151.545     317.217     241.844
  P      147.363     320.521     239.865
  C      146.537     318.105     239.382
  O      146.886     319.376     238.846
  O      147.850     321.696     238.898
  O      146.339     320.982     240.850
  H      147.173     322.396     238.832
  H      146.242     317.452     238.588
  H      145.726     318.219     240.070
  H      147.381     317.689     239.891

 6  7  8  9  10  11  12  13  14  15  25  28  32  33  34  35 0
 6-311+G(2d,p)
 ****
 36  39  40 0
 6-311+G(2d,p)
 ****
 1  2  3  4  5  16  17  18  19  20  21  22  23  24 0
 3-21G
 ****
 26  27  29  30  31  37  38  41  42  43  44  45  46  47 0
 3-21G
 ****
 48 0
 3-21G
 ****


