%nproc=1
%NoSave
%Mem=1900MB
#P OB98/GEN NMR

erre ene a

0 1
  C      -98.530     112.151      17.482
  O      -98.367     113.555      17.608
  P      -97.674     114.195      18.907
  C      -98.344     114.109      21.402
  O      -98.792     114.123      20.053
  C      -99.162     115.098      22.229
  O      -98.868     116.443      21.805
  C     -100.671     114.939      22.093
  O     -101.138     113.826      22.838
  C     -101.150     116.302      22.578
  O     -101.142     116.352      24.014
  C     -100.059     117.239      22.016
  N     -100.467     117.914      20.787
  C     -101.330     119.004      20.932
  O     -101.710     119.371      22.043
  N     -101.723     119.685      19.806
  C     -101.311     119.299      18.637
  N     -101.677     120.053      17.564
  C     -100.446     118.122      18.436
  C     -100.063     117.487      19.542
  O      -97.082     115.548      18.698
  O      -96.618     113.095      19.383
  H     -101.100     117.297      24.261
  H      -95.730     113.189      18.956
  H     -100.140     117.831      17.441
  H      -99.411     116.624      19.481
  H      -99.789     117.997      22.762
  H     -102.160     116.558      22.239
  H     -100.948     114.806      21.039
  H      -98.861     114.997      23.281
  H     -102.119     120.943      17.764
  H      -97.290     114.410      21.423
  H     -101.178     119.995      16.684
  H      -98.430     113.094      21.802
  P     -102.329     112.957      22.207
  C     -104.854     113.401      21.812
  O     -103.677     113.781      22.501
  O     -102.414     111.689      23.178
  O     -102.118     112.565      20.782
  H     -101.977     110.918      22.770
  H     -105.707     113.888      22.291
  H     -104.996     112.318      21.853
  H     -104.800     113.733      20.772
  H      -99.010     111.930      16.551
  H      -99.132     111.788      18.289
  H      -97.571     111.677      17.511

 3  4  5  6  7  8  9  10  11  12  13  23  27  28  29  30  32 0
 6-311+G(2d,p)
 ****
 34  35 0
 6-311+G(2d,p)
 ****
 1  2  14  15  16  17  18  19  20  21  22  24  25  26 0
 3-21G
 ****
 31  33  36  37  38  39  40  41  42  43  44  45  46 0
 3-21G
 ****


