%nproc=1
%NoSave
%Mem=1900MB
#P OB98/GEN NMR

erre ene a

0 1
  C     -115.184     166.888     131.209
  O     -116.150     165.998     130.692
  P     -116.628     164.707     131.514
  C     -115.241     163.036     130.140
  O     -116.543     163.479     130.484
  C     -115.011     163.100     128.628
  O     -115.750     162.028     127.979
  C     -115.434     164.419     127.970
  O     -114.518     164.647     126.897
  C     -116.812     164.086     127.432
  O     -117.237     164.988     126.418
  C     -116.605     162.634     126.984
  N     -117.867     161.920     126.837
  C     -118.292     161.659     125.531
  O     -117.652     162.093     124.571
  N     -119.460     160.963     125.340
  C     -120.190     160.647     126.364
  N     -121.333     159.953     126.116
  C     -119.841     161.014     127.749
  C     -118.673     161.629     127.913
  O     -117.936     164.851     132.215
  O     -115.404     164.414     132.501
  H     -116.552     165.011     125.715
  H     -115.415     165.048     133.262
  H     -120.508     160.780     128.565
  H     -118.332     161.938     128.892
  H     -116.070     162.596     126.027
  H     -117.547     164.131     128.245
  H     -115.446     165.265     128.658
  H     -113.944     162.915     128.441
  H     -121.527     159.708     125.151
  H     -115.138     161.998     130.468
  H     -121.928     159.589     126.844
  H     -114.489     163.629     130.672
  P     -112.939     164.744     127.157
  C     -113.035     167.036     126.025
  O     -112.354     165.796     126.103
  O     -112.224     163.430     127.196
  O     -112.812     165.517     128.555
  H     -111.914     165.399     128.910
  H     -112.400     167.758     125.501
  H     -113.263     167.422     127.021
  H     -113.964     166.908     125.463
  H     -115.011     167.675     130.505
  H     -114.270     166.360     131.384
  H     -115.538     167.304     132.129

 3  4  5  6  7  8  9  10  11  12  13  23  27  28  29  30  32 0
 6-311+G(2d,p)
 ****
 34  35 0
 6-311+G(2d,p)
 ****
 1  2  14  15  16  17  18  19  20  21  22  24  25  26 0
 3-21G
 ****
 31  33  36  37  38  39  40  41  42  43  44  45  46 0
 3-21G
 ****


