%nproc=1
%NoSave
%Mem=1900MB
#P OB98/GEN NMR

erre ene a

0 1
  C     -158.320     131.482    -280.932
  O     -157.215     131.685    -280.076
  H     -158.824     130.557    -280.639
  H     -157.984     131.382    -281.967
  H     -159.032     132.308    -280.852
  P     -156.399     133.060    -280.182
  C     -154.434     131.643    -281.064
  O     -155.215     132.820    -281.236
  C     -154.112     131.028    -282.422
  O     -155.335     130.630    -283.087
  C     -153.422     131.988    -283.386
  O     -152.060     132.169    -283.050
  C     -153.675     131.291    -284.712
  O     -152.724     130.241    -284.937
  C     -155.092     130.709    -284.510
  N     -156.116     131.515    -285.172
  C     -155.944     131.727    -286.538
  O     -155.004     131.262    -287.184
  N     -156.865     132.541    -287.136
  C     -157.832     133.263    -286.488
  O     -158.468     134.164    -287.021
  C     -158.005     132.955    -285.060
  C     -157.146     132.117    -284.475
  O     -155.982     133.665    -278.884
  O     -157.397     134.028    -280.979
  H     -157.826     134.638    -280.350
  H     -151.873     130.687    -285.121
  H     -156.723     132.731    -288.119
  H     -158.806     133.452    -284.525
  H     -157.232     131.900    -283.412
  H     -155.145     129.685    -284.900
  H     -153.605     131.988    -285.550
  H     -153.945     132.951    -283.384
  H     -153.501     130.129    -282.262
  H     -155.006     130.925    -280.465
  H     -153.515     131.903    -280.527
  P     -151.540     133.597    -282.537
  C     -149.724     133.804    -284.345
  O     -150.901     134.377    -283.783
  O     -150.681     133.557    -281.318
  O     -152.885     134.421    -282.257
  H     -152.833     134.816    -281.364
  H     -149.390     134.406    -285.164
  H     -149.940     132.816    -284.694
  H     -148.958     133.760    -283.599

 6  7  8  9  10  11  12  13  14  15  16  27  31  32  33  34  35 0
 6-311+G(2d,p)
 ****
 36  37 0
 6-311+G(2d,p)
 ****
 1  2  3  4  5  17  18  19  20  21  22  23  24  25 0
 3-21G
 ****
 26  28  29  30  38  39  40  41  42  43  44  45 0
 3-21G
 ****


