%nproc=1
%NoSave
%Mem=1900MB
#P OB98/GEN NMR

erre ene a

0 1
  C       95.515    -297.385     165.326
  O       96.173    -298.613     165.123
  H       94.555    -297.366     164.798
  H       95.328    -297.252     166.396
  H       96.143    -296.559     164.973
  P       96.438    -299.039     163.596
  C       98.456    -300.477     164.360
  O       97.228    -300.434     163.641
  C       98.508    -301.726     165.235
  O       97.651    -301.572     166.387
  C       98.036    -303.003     164.553
  O       99.036    -303.551     163.695
  C       97.785    -303.896     165.759
  O       99.029    -304.451     166.222
  C       97.233    -302.903     166.793
  N       93.253    -304.201     169.780
  C       94.589    -304.310     169.964
  N       95.586    -303.959     169.125
  C       95.092    -303.415     167.999
  C       93.756    -303.232     167.673
  C       92.803    -303.662     168.617
  N       91.448    -303.553     168.421
  N       93.629    -302.640     166.433
  C       94.864    -302.464     166.015
  N       95.785    -302.922     166.926
  O       97.552    -297.995     163.107
  O       95.238    -299.010     162.704
  H       98.855    -304.838     167.104
  H       97.398    -297.775     162.167
  H       94.904    -304.746     170.904
  H       95.137    -302.000     165.071
  H       97.666    -303.077     167.792
  H       97.112    -304.733     165.547
  H       97.096    -302.847     164.012
  H       99.541    -301.840     165.603
  H       98.528    -299.588     165.002
  H       90.834    -303.687     169.205
  H       91.124    -303.143     167.551
  H       99.288    -300.475     163.652
  P       98.554    -304.608     162.585
  C      100.222    -303.397     161.000
  O       99.737    -304.639     161.491
  O       97.370    -303.832     161.828
  O       98.106    -305.925     163.114
  H       96.759    -304.476     161.422
  H      100.999    -303.575     160.286
  H      100.609    -302.819     161.813
  H       99.423    -302.862     160.531

 6  7  8  9  10  11  12  13  14  15  25  28  32  33  34  35 0
 6-311+G(2d,p)
 ****
 36  39  40 0
 6-311+G(2d,p)
 ****
 1  2  3  4  5  16  17  18  19  20  21  22  23  24 0
 3-21G
 ****
 26  27  29  30  31  37  38  41  42  43  44  45  46  47  48 0
 3-21G
 ****


