%nproc=1
%NoSave
%Mem=1900MB
#P OB98/GEN NMR

erre ene a

0 1
  C      -70.371    -232.702    -229.409
  O      -69.972    -232.359    -230.721
  H      -70.051    -231.910    -228.727
  H      -69.901    -233.641    -229.104
  H      -71.460    -232.794    -229.357
  P      -70.331    -233.415    -231.876
  C      -71.193    -231.983    -233.858
  O      -71.531    -232.762    -232.720
  C      -72.048    -230.719    -233.910
  O      -71.808    -229.893    -232.748
  C      -71.798    -229.840    -235.129
  O      -72.520    -230.308    -236.255
  C      -72.297    -228.491    -234.628
  O      -73.734    -228.394    -234.719
  C      -71.841    -228.501    -233.164
  N      -69.465    -224.147    -232.226
  C      -70.813    -224.422    -232.328
  N      -71.651    -223.367    -232.215
  N      -71.298    -225.618    -232.532
  C      -70.340    -226.568    -232.657
  C      -68.974    -226.422    -232.560
  C      -68.454    -225.097    -232.302
  O      -67.276    -224.799    -232.138
  N      -68.335    -227.624    -232.727
  C      -69.308    -228.484    -232.963
  N      -70.541    -227.888    -232.948
  O      -71.049    -234.607    -231.082
  O      -69.173    -233.908    -232.675
  H      -74.134    -229.179    -234.311
  H      -70.874    -235.448    -231.542
  H      -69.154    -223.208    -232.051
  H      -69.168    -229.541    -233.149
  H      -72.549    -227.982    -232.508
  H      -71.892    -227.666    -235.219
  H      -71.339    -222.423    -232.392
  H      -70.725    -229.772    -235.346
  H      -72.640    -223.558    -232.310
  H      -73.099    -231.033    -233.871
  H      -71.374    -232.574    -234.762
  H      -70.132    -231.717    -233.811
  P      -71.694    -231.056    -237.411
  C      -73.411    -232.996    -237.641
  O      -72.086    -232.609    -237.313
  O      -70.187    -231.022    -236.873
  O      -71.822    -230.444    -238.765
  H      -69.567    -231.202    -237.603
  H      -73.512    -234.055    -237.526
  H      -73.621    -232.725    -238.655
  H      -74.099    -232.500    -236.989

 6  7  8  9  10  11  12  13  14  15  26  29  33  34 0
 6-311+G(2d,p)
 ****
 36  38  39  40  41 0
 6-311+G(2d,p)
 ****
 1  2  3  4  5  16  17  18  19  20  21  22  23  24  25 0
 3-21G
 ****
 27  28  30  31  32  35  37  42  43  44  45  46  47 0
 3-21G
 ****
 48  49 0
 3-21G
 ****


