%nproc=1
%NoSave
%Mem=1900MB
#P OB98/GEN NMR

erre ene a

0 1
  C     -147.923    -298.614    -342.607
  O     -147.000    -298.043    -343.519
  P     -145.895    -297.033    -342.928
  C     -144.009    -298.822    -343.049
  O     -144.764    -297.937    -342.229
  C     -142.538    -298.408    -343.093
  O     -141.978    -298.519    -341.752
  C     -141.666    -299.257    -344.030
  O     -140.677    -298.380    -344.586
  C     -141.038    -300.250    -343.065
  O     -139.896    -300.915    -343.580
  C     -140.794    -299.342    -341.861
  N     -137.234    -301.273    -338.734
  C     -137.138    -300.519    -339.854
  N     -138.131    -300.036    -340.629
  C     -139.332    -300.394    -340.142
  C     -139.590    -301.172    -339.026
  C     -138.470    -301.625    -338.302
  N     -138.571    -302.402    -337.164
  N     -140.945    -301.351    -338.851
  C     -141.500    -300.693    -339.849
  N     -140.569    -300.083    -340.639
  O     -146.648    -296.362    -341.689
  O     -145.389    -296.011    -343.900
  H     -139.463    -301.432    -342.869
  H     -146.424    -295.415    -341.611
  H     -136.130    -300.272    -340.169
  H     -142.564    -300.639    -340.047
  H     -139.936    -298.677    -342.016
  H     -141.775    -301.024    -342.824
  H     -142.229    -299.721    -344.846
  H     -142.486    -297.347    -343.379
  H     -144.407    -298.796    -344.071
  H     -137.721    -302.834    -336.839
  H     -139.474    -302.823    -336.973
  H     -144.121    -299.845    -342.673
  P     -140.095    -298.690    -346.047
  C     -141.922    -297.286    -347.183
  O     -141.381    -298.579    -347.006
  O     -139.889    -300.275    -345.960
  O     -138.878    -297.927    -346.441
  H     -140.694    -300.725    -345.639
  H     -142.723    -297.343    -347.932
  H     -141.155    -296.597    -347.540
  H     -142.345    -296.927    -346.243
  H     -148.593    -299.260    -343.135
  H     -148.480    -297.836    -342.129
  H     -147.392    -299.178    -341.869

 3  4  5  6  7  8  9  10  11  12  22  25  29  30  31  32 0
 6-311+G(2d,p)
 ****
 33  36  37 0
 6-311+G(2d,p)
 ****
 1  2  13  14  15  16  17  18  19  20  21  23  24  26 0
 3-21G
 ****
 27  28  34  35  38  39  40  41  42  43  44  45  46  47  48 0
 3-21G
 ****


