%nproc=1
%NoSave
%Mem=1900MB
#P OB98/GEN NMR

erre ene a

0 1
  C     -155.835    -150.605     330.467
  O     -156.129    -149.233     330.189
  P     -156.492    -148.315     331.456
  C     -158.562    -146.893     330.795
  O     -157.151    -146.954     330.913
  C     -159.043    -145.444     330.731
  O     -158.905    -144.762     332.007
  C     -158.285    -144.593     329.727
  O     -158.770    -144.840     328.422
  C     -158.581    -143.179     330.220
  O     -159.849    -142.711     329.718
  C     -158.627    -143.365     331.739
  N     -156.711    -140.203     335.219
  C     -157.967    -140.226     334.641
  N     -158.840    -139.296     335.063
  N     -158.326    -141.092     333.730
  C     -157.352    -141.974     333.394
  C     -156.077    -142.066     333.911
  C     -155.687    -141.092     334.923
  O     -154.597    -141.040     335.483
  N     -155.394    -143.122     333.379
  C     -156.205    -143.587     332.446
  N     -157.434    -142.966     332.460
  O     -155.061    -147.861     332.005
  O     -157.276    -149.034     332.501
  H     -160.095    -141.904     330.197
  H     -154.873    -148.300     332.860
  H     -156.483    -139.502     335.899
  H     -155.967    -144.386     331.758
  H     -159.455    -142.790     332.184
  H     -157.821    -142.469     329.878
  H     -158.631    -138.593     335.770
  H     -157.207    -144.804     329.791
  H     -159.774    -139.304     334.662
  H     -160.115    -145.457     330.487
  H     -159.032    -147.397     331.647
  H     -158.872    -147.444     329.898
  P     -157.842    -145.664     327.409
  C     -158.372    -144.347     325.230
  O     -158.501    -145.560     325.947
  O     -158.078    -147.184     327.833
  O     -156.387    -145.302     327.482
  H     -157.228    -147.650     327.874
  H     -158.380    -144.562     324.164
  H     -157.449    -143.810     325.483
  H     -159.232    -143.693     325.458
  H     -155.610    -151.114     329.553
  H     -156.683    -151.064     330.931
  H     -154.993    -150.663     331.125

 3  4  5  6  7  8  9  10  11  12  23  26  30  31 0
 6-311+G(2d,p)
 ****
 33  35  36  37  38 0
 6-311+G(2d,p)
 ****
 1  2  13  14  15  16  17  18  19  20  21  22  24  25 0
 3-21G
 ****
 27  28  29  32  34  39  40  41  42  43  44  45  46  47  48  49 0
 3-21G
 ****


