%nproc=1
%NoSave
%Mem=1900MB
#P OB98/GEN NMR

erre ene a

0 1
  C      255.451    -250.793    -124.700
  O      254.569    -250.441    -125.747
  H      255.015    -250.465    -123.753
  H      256.418    -250.303    -124.829
  H      255.583    -251.878    -124.664
  P      255.031    -250.713    -127.257
  C      254.662    -253.270    -127.366
  O      254.204    -251.987    -127.768
  C      254.624    -254.256    -128.542
  O      255.430    -255.420    -128.205
  C      253.210    -254.762    -128.881
  O      253.185    -255.046    -130.286
  C      253.152    -256.044    -128.074
  O      252.078    -256.857    -128.475
  C      254.570    -256.578    -128.298
  N      254.936    -257.610    -127.340
  C      255.150    -258.888    -127.860
  O      255.011    -259.099    -129.065
  N      255.484    -259.904    -127.001
  C      255.529    -259.677    -125.726
  N      255.849    -260.729    -124.925
  C      255.253    -258.353    -125.129
  C      254.972    -257.374    -125.986
  O      256.505    -250.792    -127.481
  O      254.380    -249.505    -128.083
  H      252.054    -257.691    -127.953
  H      255.070    -248.856    -128.315
  H      255.288    -258.220    -124.057
  H      254.753    -256.366    -125.642
  H      254.679    -256.987    -129.310
  H      252.996    -255.824    -127.013
  H      252.428    -254.045    -128.626
  H      255.096    -253.784    -129.413
  H      256.019    -261.621    -125.375
  H      254.004    -253.619    -126.566
  H      255.896    -260.677    -123.919
  H      255.684    -253.202    -126.977
  P      253.240    -253.900    -131.407
  C      255.768    -253.389    -131.304
  O      254.691    -253.894    -132.089
  O      252.789    -252.559    -130.925
  O      252.280    -254.420    -132.581
  H      251.878    -253.652    -133.027
  H      256.675    -253.439    -131.869
  H      255.868    -253.977    -130.416
  H      255.569    -252.372    -131.038

 6  7  8  9  10  11  12  13  14  15  16  26  30  31  32  33  35 0
 6-311+G(2d,p)
 ****
 37  38 0
 6-311+G(2d,p)
 ****
 1  2  3  4  5  17  18  19  20  21  22  23  24  25 0
 3-21G
 ****
 27  28  29  34  36  39  40  41  42  43  44  45  46 0
 3-21G
 ****


