%nproc=1
%NoSave
%Mem=1900MB
#P OB98/GEN NMR

erre ene a

0 1
  C      819.725     179.364    -465.774
  O      818.803     178.418    -465.263
  P      817.539     178.865    -464.365
  C      818.792     179.066    -462.121
  O      817.864     178.312    -462.901
  C      818.915     178.458    -460.718
  O      817.776     178.868    -459.928
  C      818.924     176.932    -460.665
  O      820.182     176.329    -460.894
  C      818.520     176.708    -459.198
  O      819.651     176.908    -458.343
  C      817.469     177.817    -459.008
  N      813.989     174.314    -457.612
  C      815.261     174.562    -457.192
  N      816.132     175.490    -457.627
  C      815.551     176.260    -458.556
  C      814.279     176.162    -459.073
  C      813.464     175.138    -458.552
  N      812.161     174.915    -458.966
  N      814.053     177.143    -460.036
  C      815.174     177.840    -460.082
  N      816.107     177.329    -459.208
  O      816.221     178.495    -464.951
  O      817.730     180.448    -464.203
  H      819.331     176.886    -457.431
  H      816.876     180.851    -463.911
  H      815.638     173.881    -456.423
  H      815.350     178.669    -460.738
  H      817.514     178.241    -457.990
  H      818.151     175.683    -459.017
  H      818.154     176.501    -461.317
  H      819.822     178.859    -460.252
  H      818.408     180.088    -462.030
  H      811.614     174.242    -458.442
  H      811.726     175.632    -459.550
  H      819.749     179.095    -462.635
  P      820.329     175.391    -462.185
  C      819.005     173.200    -461.581
  O      820.256     173.876    -461.631
  O      821.511     175.687    -463.049
  O      818.923     175.579    -462.931
  H      818.151     175.224    -462.461
  H      819.189     172.144    -461.342
  H      818.494     173.259    -462.556
  H      818.377     173.654    -460.804
  H      820.480     178.857    -466.338
  H      820.180     179.893    -464.963
  H      819.211     180.056    -466.408

 3  4  5  6  7  8  9  10  11  12  22  25  29  30  31  32 0
 6-311+G(2d,p)
 ****
 33  36  37 0
 6-311+G(2d,p)
 ****
 1  2  13  14  15  16  17  18  19  20  21  23  24  26 0
 3-21G
 ****
 27  28  34  35  38  39  40  41  42  43  44  45  46  47  48 0
 3-21G
 ****


