%nproc=1
%NoSave
%Mem=1900MB
#P OB98/GEN NMR

erre ene a

0 1
  C     -256.748    1061.891     499.943
  O     -255.522    1062.057     500.626
  H     -256.956    1060.819     499.843
  H     -256.681    1062.327     498.944
  H     -257.569    1062.360     500.500
  P     -255.096    1063.555     501.024
  C     -256.082    1065.362     502.608
  O     -256.314    1064.168     501.870
  C     -257.254    1065.649     503.546
  O     -258.427    1065.961     502.746
  C     -257.611    1064.478     504.463
  O     -257.983    1064.991     505.738
  C     -258.832    1063.850     503.791
  O     -259.651    1063.140     504.713
  C     -259.494    1065.079     503.151
  N     -260.353    1064.702     502.035
  C     -261.559    1064.063     502.351
  O     -261.841    1063.832     503.531
  N     -262.375    1063.649     501.337
  C     -261.988    1063.790     500.104
  N     -262.839    1063.319     499.147
  C     -260.699    1064.390     499.720
  C     -259.937    1064.830     500.726
  O     -255.174    1064.347     499.636
  O     -253.759    1063.684     501.674
  H     -259.830    1063.724     505.486
  H     -254.517    1065.064     499.596
  H     -260.414    1064.455     498.681
  H     -258.975    1065.291     500.544
  H     -260.103    1065.622     503.897
  H     -258.501    1063.151     503.015
  H     -256.792    1063.755     504.580
  H     -257.019    1066.547     504.132
  H     -263.701    1062.900     499.440
  H     -255.973    1066.196     501.904
  H     -262.622    1063.338     498.154
  H     -255.149    1065.262     503.182
  P     -256.975    1064.695     506.956
  C     -254.711    1065.713     507.715
  O     -255.954    1065.930     507.072
  O     -256.072    1063.502     506.404
  O     -257.667    1064.324     508.227
  H     -256.299    1062.665     506.865
  H     -254.145    1066.621     507.714
  H     -254.167    1064.954     507.193
  H     -254.881    1065.400     508.724

 6  7  8  9  10  11  12  13  14  15  16  26  30  31  32  33  35 0
 6-311+G(2d,p)
 ****
 37  38 0
 6-311+G(2d,p)
 ****
 1  2  3  4  5  17  18  19  20  21  22  23  24  25 0
 3-21G
 ****
 27  28  29  34  36  39  40  41  42  43  44  45  46 0
 3-21G
 ****


