%nproc=1
%NoSave
%Mem=1900MB
#P OB98/GEN NMR

erre ene a

0 1
  C      -12.624      17.283     -76.360
  O      -13.564      16.985     -75.348
  H      -12.395      16.364     -76.903
  H      -11.702      17.671     -75.922
  H      -13.039      18.011     -77.063
  P      -14.027      18.155     -74.357
  C      -16.526      17.816     -74.906
  O      -15.524      17.806     -73.896
  C      -16.550      16.470     -75.642
  O      -16.579      15.422     -74.642
  C      -17.783      16.315     -76.543
  O      -17.451      15.957     -77.881
  C      -18.675      15.368     -75.748
  O      -19.573      14.615     -76.535
  C      -17.672      14.536     -74.943
  N      -18.227      13.967     -73.717
  C      -19.092      12.884     -73.848
  O      -19.413      12.362     -74.912
  N      -19.597      12.385     -72.675
  C      -19.343      12.859     -71.423
  O      -19.824      12.367     -70.409
  C      -18.446      14.022     -71.351
  C      -17.938      14.516     -72.483
  O      -13.840      19.544     -74.867
  O      -13.173      17.898     -73.027
  H      -19.907      15.208     -77.241
  H      -12.458      18.560     -72.967
  H      -20.212      11.591     -72.756
  H      -18.233      14.432     -70.373
  H      -17.271      15.372     -72.465
  H      -17.288      13.712     -75.544
  H      -19.280      15.965     -75.055
  H      -18.301      17.273     -76.661
  H      -15.618      16.361     -76.207
  H      -16.291      18.626     -75.605
  H      -17.504      18.008     -74.453
  P      -17.482      16.947     -79.130
  C      -16.074      15.727     -80.986
  O      -17.349      16.084     -80.469
  O      -16.619      18.160     -79.023
  O      -19.014      17.448     -79.182
  H      -18.992      18.362     -79.529
  H      -16.200      15.154     -81.881
  H      -15.546      15.144     -80.261
  H      -15.517      16.614     -81.205

 6  7  8  9  10  11  12  13  14  15  16  26  31  32  33  34  35 0
 6-311+G(2d,p)
 ****
 36  37 0
 6-311+G(2d,p)
 ****
 1  2  3  4  5  17  18  19  20  21  22  23  24  25 0
 3-21G
 ****
 27  28  29  30  38  39  40  41  42  43  44  45 0
 3-21G
 ****


