%nproc=1
%NoSave
%Mem=1900MB
#P OB98/GEN NMR

erre ene a

0 1
  C     -897.410    -174.263     233.989
  O     -897.510    -175.666     233.841
  H     -897.090    -174.046     235.008
  H     -898.380    -173.794     233.819
  H     -896.670    -173.853     233.303
  P     -897.860    -176.270     232.395
  C     -895.640    -177.437     231.898
  O     -897.000    -177.612     232.235
  C     -895.050    -178.739     231.320
  O     -894.820    -179.671     232.400
  C     -895.980    -179.421     230.301
  O     -895.170    -179.992     229.260
  C     -896.630    -180.536     231.113
  O     -897.030    -181.631     230.292
  C     -895.500    -180.887     232.095
  N     -896.740    -185.282     234.263
  C     -896.150    -185.039     233.049
  N     -895.870    -186.103     232.272
  N     -895.870    -183.822     232.613
  C     -896.180    -182.853     233.494
  C     -896.780    -182.974     234.741
  C     -897.100    -184.310     235.192
  O     -897.650    -184.589     236.265
  N     -896.980    -181.742     235.313
  C     -896.510    -180.873     234.437
  N     -896.030    -181.503     233.305
  O     -897.750    -175.318     231.258
  O     -899.360    -176.823     232.563
  H     -896.270    -181.861     229.717
  H     -900.000    -176.186     232.183
  H     -896.940    -186.228     234.545
  H     -896.500    -179.798     234.552
  H     -894.780    -181.604     231.677
  H     -897.500    -180.145     231.639
  H     -896.040    -187.053     232.553
  H     -896.720    -178.742     229.864
  H     -895.410    -185.941     231.381
  H     -894.070    -178.513     230.869
  H     -895.080    -177.168     232.802
  H     -895.540    -176.624     231.164
  P     -895.420    -179.507     227.755
  C     -892.920    -180.045     227.355
  O     -894.260    -180.119     226.843
  O     -895.680    -178.043     227.570
  O     -896.700    -180.386     227.310
  H     -897.200    -179.878     226.656
  H     -892.245    -180.487     226.652
  H     -892.864    -180.573     228.284
  H     -892.653    -179.020     227.510

 6  7  8  9  10  11  12  13  14  15  26  29  33  34 0
 6-311+G(2d,p)
 ****
 36  38  39  40  41 0
 6-311+G(2d,p)
 ****
 1  2  3  4  5  16  17  18  19  20  21  22  23  24  25 0
 3-21G
 ****
 27  28  30  31  32  35  37  42  43  44  45  46  47 0
 3-21G
 ****
 48  49 0
 3-21G
 ****


