%nproc=1
%NoSave
%Mem=1900MB
#P OB98/GEN NMR

erre ene a

0 1
  C      522.041    -256.799    -216.653
  O      522.711    -257.857    -217.314
  H      521.902    -257.074    -215.605
  H      521.062    -256.633    -217.109
  H      522.639    -255.884    -216.702
  P      523.027    -257.640    -218.871
  C      521.711    -259.771    -219.597
  O      522.958    -259.095    -219.545
  C      521.927    -261.291    -219.628
  O      522.348    -261.727    -218.302
  C      520.660    -262.091    -219.979
  O      521.078    -263.312    -220.621
  C      520.102    -262.409    -218.601
  O      519.118    -263.412    -218.672
  C      521.403    -262.734    -217.872
  N      521.091    -265.639    -213.668
  C      521.278    -265.956    -214.971
  N      521.364    -265.124    -216.030
  C      521.255    -263.843    -215.644
  C      521.071    -263.366    -214.356
  C      520.983    -264.328    -213.333
  N      520.787    -264.011    -212.010
  N      521.005    -261.982    -214.353
  C      521.145    -261.634    -215.616
  N      521.293    -262.725    -216.430
  O      524.586    -257.286    -218.883
  O      522.208    -256.594    -219.551
  H      519.475    -264.220    -219.104
  H      524.706    -256.316    -218.893
  H      521.366    -267.016    -215.188
  H      521.138    -260.619    -215.994
  H      521.800    -263.713    -218.167
  H      519.620    -261.527    -218.166
  H      519.972    -261.552    -220.634
  H      522.749    -261.522    -220.314
  H      521.182    -259.455    -220.502
  H      521.114    -259.506    -218.720
  H      520.721    -264.762    -211.341
  H      520.686    -263.039    -211.748
  P      520.522    -263.649    -222.094
  C      518.670    -265.400    -221.483
  O      519.931    -265.140    -222.089
  O      521.879    -263.832    -222.929
  O      519.658    -262.602    -222.715
  H      521.724    -263.606    -223.865
  H      518.438    -266.441    -221.574
  H      517.914    -264.822    -221.972
  H      518.710    -265.133    -220.448

 6  7  8  9  10  11  12  13  14  15  25  28  32  33  34  35 0
 6-311+G(2d,p)
 ****
 36  37  40 0
 6-311+G(2d,p)
 ****
 1  2  3  4  5  16  17  18  19  20  21  22  23  24 0
 3-21G
 ****
 26  27  29  30  31  38  39 41  42  43  44  45  46  47  48 0
 3-21G
 ****


