%nproc=1
%NoSave
%Mem=1900MB
#P OB98/GEN NMR

erre ene a

0 1
  C     -424.731     141.819    -101.855
  O     -424.894     140.415    -101.902
  H     -423.723     142.059    -101.508
  H     -424.859     142.223    -102.864
  H     -425.472     142.275    -101.194
  P     -425.044     139.647    -100.502
  C     -426.260     137.788    -101.851
  O     -425.286     138.094    -100.861
  C     -426.536     136.285    -101.881
  O     -425.417     135.623    -102.540
  C     -426.708     135.648    -100.491
  O     -427.738     134.655    -100.573
  C     -425.375     134.953    -100.257
  O     -425.475     133.857     -99.353
  C     -425.001     134.545    -101.681
  N     -421.412     130.953    -101.327
  C     -422.755     130.882    -101.440
  N     -423.639     131.890    -101.586
  C     -422.996     133.069    -101.673
  C     -421.636     133.308    -101.579
  C     -420.821     132.175    -101.380
  N     -419.458     132.248    -101.191
  N     -421.373     134.661    -101.661
  C     -422.556     135.230    -101.778
  N     -423.568     134.312    -101.787
  O     -426.479     140.142     -99.992
  O     -423.970     139.915     -99.498
  H     -425.614     134.204     -98.451
  H     -426.378     140.971     -99.487
  H     -423.178     129.876    -101.404
  H     -422.734     136.299    -101.825
  H     -425.509     133.629    -102.005
  H     -424.655     135.673     -99.851
  H     -426.947     136.366     -99.698
  H     -427.424     136.106    -102.500
  H     -425.882     138.099    -102.834
  H     -418.974     131.401    -100.947
  H     -419.023     133.154    -101.121
  H     -427.182     138.339    -101.633
  P     -429.241     135.129    -100.268
  C     -430.385     133.364    -101.809
  O     -430.221     133.880    -100.494
  O     -429.579     136.090    -101.508
  O     -429.404     135.833     -98.961
  H     -430.183     136.801    -101.226
  H     -431.066     132.539    -101.786
  H     -429.438     133.035    -102.184
  H     -430.774     134.130    -102.447

 6  7  8  9  10  11  12  13  14  15  25  28  32  33  34  35 0
 6-311+G(2d,p)
 ****
 36  39  40 0
 6-311+G(2d,p)
 ****
 1  2  3  4  5  16  17  18  19  20  21  22  23  24 0
 3-21G
 ****
 26  27  29  30  31  37  38  41  42  43  44  45  46  47 0
 3-21G
 ****
 48 0
 3-21G
 ****


