%nproc=1
%NoSave
%Mem=1900MB
#P OB98/GEN NMR

erre ene a

0 1
  C      302.272      71.241      25.849
  O      301.305      71.965      25.115
  H      301.866      70.260      26.090
  H      302.507      71.763      26.779
  H      303.181      71.109      25.252
  P      301.708      73.448      24.628
  C      301.164      72.743      22.183
  O      300.919      73.661      23.242
  C      300.142      72.947      21.056
  O      298.865      72.410      21.477
  C      299.934      74.419      20.673
  O      299.868      74.531      19.248
  C      298.597      74.782      21.304
  O      297.953      75.843      20.614
  C      297.865      73.431      21.278
  N      296.820      73.358      22.312
  C      295.646      74.073      22.057
  O      295.517      74.732      21.022
  N      294.660      74.066      23.014
  C      294.848      73.455      24.145
  N      293.841      73.511      25.063
  C      296.096      72.733      24.473
  C      297.030      72.727      23.516
  O      303.232      73.270      24.176
  O      301.498      74.530      25.638
  H      298.533      76.633      20.654
  H      303.676      74.145      24.048
  H      296.220      72.252      25.432
  H      297.978      72.216      23.663
  H      297.396      73.264      20.299
  H      298.764      75.094      22.338
  H      300.723      75.065      21.049
  H      300.457      72.357      20.189
  H      293.011      74.024      24.806
  H      301.092      71.720      22.571
  H      293.898      73.095      25.977
  H      302.170      72.911      21.786
  P      301.281      74.494      18.482
  C      300.301      72.744      16.838
  O      301.015      73.963      16.985
  O      302.070      73.289      19.184
  O      302.041      75.792      18.559
  H      302.694      73.629      19.856
  H      300.198      72.514      15.798
  H      299.331      72.843      17.279
  H      300.836      71.956      17.326

 6  7  8  9  10  11  12  13  14  15  16  26  30  31  32  33  35 0
 6-311+G(2d,p)
 ****
 37  38 0
 6-311+G(2d,p)
 ****
 1  2  3  4  5  17  18  19  20  21  22  23  24  25 0
 3-21G
 ****
 27  28  29  34  36  39  40  41  42  43  44  45  46 0
 3-21G
 ****


