%nproc=1
%NoSave
%Mem=1900MB
#P OB98/GEN NMR

erre ene a

0 1
  C     -421.205     701.534     320.486
  O     -420.964     700.180     320.888
  P     -420.979     699.074     319.716
  C     -420.580     696.509     319.571
  O     -420.862     697.626     320.404
  C     -420.002     695.349     320.387
  O     -418.761     695.707     321.059
  C     -420.939     694.856     321.487
  O     -421.929     694.004     320.923
  C     -419.972     694.119     322.420
  O     -419.729     692.777     321.961
  C     -418.701     694.976     322.310
  N     -416.885     695.500     327.023
  C     -417.075     694.348     326.262
  N     -416.710     693.184     326.841
  N     -417.581     694.359     325.060
  C     -417.900     695.601     324.609
  C     -417.725     696.795     325.255
  C     -417.173     696.794     326.593
  O     -416.964     697.767     327.293
  N     -418.120     697.859     324.448
  C     -418.633     697.271     323.381
  N     -418.461     695.902     323.403
  O     -419.569     699.275     318.993
  O     -422.113     699.237     318.764
  H     -419.504     692.808     321.016
  H     -419.710     699.666     318.108
  H     -416.506     695.432     327.949
  H     -419.105     697.783     322.569
  H     -417.798     694.343     322.240
  H     -420.383     694.045     323.428
  H     -416.308     693.106     327.779
  H     -421.396     695.714     321.998
  H     -416.834     692.328     326.302
  H     -419.777     694.529     319.689
  H     -419.878     696.802     318.783
  H     -421.502     696.204     319.064
  P     -423.454     694.260     321.348
  C     -425.754     694.167     320.137
  O     -424.371     693.923     320.072
  O     -423.532     695.864     321.464
  O     -423.870     693.611     322.630
  H     -424.033     696.106     322.270
  H     -426.130     694.397     319.127
  H     -425.987     695.015     320.803
  H     -426.267     693.264     320.501
  H     -421.171     702.172     321.344
  H     -422.169     701.604     320.028
  H     -420.455     701.837     319.786

 3  4  5  6  7  8  9  10  11  12  23  26  30  31 0
 6-311+G(2d,p)
 ****
 33  35  36  37  38 0
 6-311+G(2d,p)
 ****
 1  2  13  14  15  16  17  18  19  20  21  22  24  25 0
 3-21G
 ****
 27  28  29  32  34  39  40  41  42  43  44  45  46  47  48  49 0
 3-21G
 ****


