%nproc=1
%NoSave
%Mem=1900MB
#P OB98/GEN NMR

erre ene a

0 1
  C     1222.436     -26.759     290.952
  O     1221.434     -27.649     290.502
  H     1221.959     -25.817     291.246
  H     1223.145     -26.563     290.148
  H     1222.966     -27.170     291.819
  P     1221.891     -29.162     290.224
  C     1221.484     -29.106     287.658
  O     1221.093     -29.650     288.910
  C     1220.245     -28.793     286.810
  O     1219.528     -30.014     286.502
  C     1219.234     -27.867     287.485
  O     1219.601     -26.505     287.346
  C     1217.990     -28.187     286.686
  O     1218.049     -27.535     285.418
  C     1218.094     -29.713     286.514
  N     1214.357     -32.963     287.547
  C     1214.710     -32.359     286.359
  N     1213.940     -32.663     285.280
  N     1215.693     -31.513     286.212
  C     1216.376     -31.316     287.374
  C     1216.128     -31.850     288.619
  C     1215.023     -32.764     288.757
  O     1214.677     -33.353     289.767
  N     1217.036     -31.403     289.552
  C     1217.809     -30.576     288.883
  N     1217.453     -30.494     287.556
  O     1221.192     -29.992     291.412
  O     1223.373     -29.386     290.205
  H     1218.243     -26.585     285.596
  H     1221.794     -30.722     291.681
  H     1213.556     -33.579     287.601
  H     1218.642     -30.028     289.295
  H     1217.698     -30.064     285.554
  H     1217.071     -27.855     287.179
  H     1213.130     -33.254     285.325
  H     1219.078     -28.143     288.545
  H     1214.202     -32.260     284.378
  H     1220.597     -28.365     285.862
  H     1222.112     -29.828     287.127
  H     1222.050     -28.187     287.832
  P     1219.570     -25.579     288.669
  C     1217.637     -24.121     287.702
  O     1218.984     -24.172     288.201
  O     1221.125     -25.281     288.928
  O     1218.914     -26.209     289.859
  H     1221.272     -25.044     289.862
  H     1217.395     -23.114     287.432
  H     1216.962     -24.459     288.461
  H     1217.551     -24.752     286.842

 6  7  8  9  10  11  12  13  14  15  26  29  33  34 0
 6-311+G(2d,p)
 ****
 36  38  39  40  41 0
 6-311+G(2d,p)
 ****
 1  2  3  4  5  16  17  18  19  20  21  22  23  24  25 0
 3-21G
 ****
 27  28  30  31  32  35  37  42  43  44  45  46  47 0
 3-21G
 ****
 48  49 0
 3-21G
 ****


