%nproc=1
%NoSave
%Mem=1900MB
#P OB98/GEN NMR

erre ene a

0 1
  C       -0.099    -198.376    -232.396
  O        0.164    -198.744    -233.737
  H        0.022    -199.255    -231.760
  H       -1.124    -198.008    -232.303
  H        0.605    -197.603    -232.071
  P        0.077    -197.573    -234.830
  C        2.219    -196.129    -234.465
  O        1.595    -197.187    -235.181
  C        3.690    -196.468    -234.197
  O        3.750    -197.705    -233.423
  C        4.512    -196.699    -235.477
  O        5.876    -196.314    -235.218
  C        4.440    -198.211    -235.622
  O        5.434    -198.670    -236.509
  C        4.590    -198.619    -234.160
  N        5.144    -203.443    -235.724
  C        5.734    -202.292    -236.118
  N        5.539    -201.044    -235.645
  C        4.642    -201.056    -234.640
  C        3.957    -202.147    -234.133
  C        4.229    -203.389    -234.724
  N        3.615    -204.563    -234.345
  N        3.098    -201.751    -233.120
  C        3.270    -200.451    -233.017
  N        4.194    -199.987    -233.915
  O       -0.446    -196.320    -233.983
  O       -0.788    -197.855    -236.011
  H        6.316    -198.659    -236.085
  H       -1.421    -196.271    -234.032
  H        6.461    -202.384    -236.923
  H        2.754    -199.795    -232.328
  H        5.619    -198.501    -233.797
  H        3.472    -198.521    -236.023
  H        4.134    -196.149    -236.341
  H        4.135    -195.682    -233.572
  H        1.690    -195.989    -233.518
  H        2.161    -195.209    -235.052
  H        3.850    -205.406    -234.841
  H        2.909    -204.536    -233.625
  P        6.409    -194.905    -235.775
  C        5.715    -193.173    -233.953
  O        6.760    -193.916    -234.562
  O        5.065    -194.254    -236.369
  O        7.452    -194.990    -236.844
  H        5.246    -193.877    -237.251
  H        6.118    -192.568    -233.168
  H        4.988    -193.846    -233.548
  H        5.251    -192.545    -234.684

 6  7  8  9  10  11  12  13  14  15  25  28  32  33  34  35 0
 6-311+G(2d,p)
 ****
 36  37  40 0
 6-311+G(2d,p)
 ****
 1  2  3  4  5  16  17  18  19  20  21  22  23  24 0
 3-21G
 ****
 26  27  29  30  31  38  39 41  42  43  44  45  46  47  48 0
 3-21G
 ****


