%nproc=1
%NoSave
%Mem=1900MB
#P OB98/GEN NMR

erre ene a

0 1
  C      261.088     511.634      69.049
  O      261.454     512.698      69.905
  H      261.244     510.692      69.579
  H      261.710     511.638      68.147
  H      260.032     511.710      68.773
  P      261.356     514.196      69.348
  C      258.899     514.989      69.453
  O      259.899     514.332      68.686
  C      257.638     515.187      68.618
  O      256.531     515.561      69.462
  C      257.755     516.283      67.556
  O      258.416     515.786      66.401
  C      256.287     516.583      67.304
  O      255.716     515.548      66.482
  C      255.701     516.506      68.727
  N      252.804     520.317      70.409
  C      252.481     519.259      69.582
  N      251.217     519.229      69.110
  N      253.326     518.321      69.235
  C      254.572     518.519      69.725
  C      255.017     519.537      70.538
  C      254.053     520.530      70.967
  O      254.293     521.471      71.721
  N      256.369     519.455      70.753
  C      256.731     518.360      70.111
  N      255.678     517.759      69.463
  O      262.474     514.640      68.455
  O      261.242     515.101      70.664
  H      255.638     514.751      67.037
  H      262.122     515.400      70.963
  H      252.110     521.011      70.633
  H      257.738     517.955      70.086
  H      254.677     516.118      68.729
  H      256.132     517.530      66.786
  H      250.567     519.996      69.218
  H      258.240     517.178      67.956
  H      250.980     518.492      68.453
  H      257.381     514.224      68.162
  H      259.306     515.952      69.769
  H      258.657     514.404      70.348
  P      258.432     516.615      65.026
  C      261.005     516.649      64.774
  O      259.829     517.397      65.016
  O      257.233     517.474      64.798
  O      258.665     515.506      63.901
  H      257.824     515.075      63.604
  H      261.853     517.301      64.797
  H      260.940     516.183      63.813
  H      261.111     515.898      65.528

 6  7  8  9  10  11  12  13  14  15  26  29  33  34 0
 6-311+G(2d,p)
 ****
 36  38  39  40  41 0
 6-311+G(2d,p)
 ****
 1  2  3  4  5  16  17  18  19  20  21  22  23  24  25 0
 3-21G
 ****
 27  28  30  31  32  35  37  42  43  44  45  46  47 0
 3-21G
 ****
 48  49 0
 3-21G
 ****


