%nproc=1
%NoSave
%Mem=1900MB
#P OB98/GEN NMR

erre ene a

0 1
  C     -295.617     207.074     416.984
  O     -294.898     206.909     418.190
  P     -293.559     207.745     418.456
  C     -292.368     208.823     420.461
  O     -293.588     208.281     419.965
  C     -292.348     208.787     421.984
  O     -293.386     209.629     422.534
  C     -292.607     207.411     422.578
  O     -291.497     206.544     422.418
  C     -292.942     207.771     424.019
  O     -291.742     208.000     424.776
  C     -293.718     209.091     423.835
  N     -295.152     208.915     423.985
  C     -295.589     208.456     425.230
  O     -294.777     208.144     426.103
  N     -296.942     208.348     425.451
  C     -297.774     208.559     424.483
  N     -299.103     208.498     424.775
  C     -297.344     208.892     423.104
  C     -296.036     209.071     422.938
  O     -293.245     208.779     417.425
  O     -292.408     206.629     418.499
  H     -291.681     206.899     417.909
  H     -291.201     208.629     424.256
  H     -298.075     208.988     422.316
  H     -295.628     209.335     421.970
  H     -293.379     209.839     424.563
  H     -293.500     206.981     424.529
  H     -293.490     206.963     422.098
  H     -291.375     209.171     422.320
  H     -299.359     208.289     425.731
  H     -292.274     209.855     420.113
  H     -299.809     208.955     424.203
  H     -291.527     208.245     420.051
  P     -291.611     205.088     423.087
  C     -291.605     202.641     422.244
  O     -291.573     204.012     421.904
  O     -293.128     205.038     423.602
  O     -290.650     204.840     424.203
  H     -293.172     204.546     424.446
  H     -291.922     202.067     421.366
  H     -292.304     202.448     423.062
  H     -290.603     202.311     422.534
  H     -296.476     206.436     416.991
  H     -294.989     206.818     416.156
  H     -295.931     208.093     416.892

 3  4  5  6  7  8  9  10  11  12  13  24  27  28  29  30  32 0
 6-311+G(2d,p)
 ****
 34  35 0
 6-311+G(2d,p)
 ****
 1  2  14  15  16  17  18  19  20  21  22  23  25  26 0
 3-21G
 ****
 31  33  36  37  38  39  40  41  42  43  44  45  46 0
 3-21G
 ****


