%nproc=1
%NoSave
%Mem=1900MB
#P OB98/GEN NMR

erre ene a

0 1
  C        1.193     111.909    -525.518
  O        0.851     112.683    -524.381
  H        2.270     111.739    -525.513
  H        0.922     112.446    -526.431
  H        0.679     110.944    -525.483
  P       -0.704     113.026    -524.190
  C       -1.176     111.330    -522.289
  O       -1.349     111.654    -523.661
  C       -0.984     109.825    -522.113
  O       -2.162     109.109    -522.528
  C        0.162     109.242    -522.936
  O        1.407     109.463    -522.294
  C       -0.214     107.770    -522.945
  O        0.173     107.160    -521.696
  C       -1.751     107.815    -523.052
  N       -3.770     104.527    -526.433
  C       -3.187     104.331    -525.235
  N       -2.634     105.249    -524.409
  C       -2.725     106.481    -524.935
  C       -3.293     106.833    -526.154
  C       -3.847     105.791    -526.915
  N       -4.448     105.997    -528.140
  N       -3.204     108.191    -526.358
  C       -2.634     108.662    -525.262
  N       -2.296     107.661    -524.387
  O       -1.371     113.668    -525.356
  O       -0.659     113.916    -522.856
  H        1.121     106.954    -521.752
  H       -0.004     113.557    -522.230
  H       -3.160     103.303    -524.884
  H       -2.468     109.707    -525.049
  H       -2.222     107.047    -522.428
  H        0.292     107.219    -523.740
  H        0.154     109.622    -523.961
  H       -0.840     109.626    -521.044
  H       -2.047     111.661    -521.709
  H       -4.662     105.182    -528.694
  H       -4.394     106.917    -528.547
  H       -0.302     111.869    -521.930
  P        2.779     109.022    -522.998
  C        3.753     111.383    -522.692
  O        3.424     110.355    -523.621
  O        2.663     107.887    -523.955
  O        3.764     108.678    -521.784
  H        4.317     107.907    -522.005
  H        4.172     112.216    -523.216
  H        4.465     111.011    -521.986
  H        2.869     111.694    -522.176

 6  7  8  9  10  11  12  13  14  15  25  28  32  33  34  35 0
 6-311+G(2d,p)
 ****
 36  39  40 0
 6-311+G(2d,p)
 ****
 1  2  3  4  5  16  17  18  19  20  21  22  23  24 0
 3-21G
 ****
 26  27  29  30  31  37  38  41  42  43  44  45  46  47 0
 3-21G
 ****
 48 0
 3-21G
 ****


