%nproc=1
%NoSave
%Mem=1900MB
#P OB98/GEN NMR

erre ene a

0 1
  C     -946.727    -286.019     -41.485
  O     -946.345    -286.063     -42.845
  H     -946.704    -287.037     -41.085
  H     -947.746    -285.628     -41.391
  H     -946.037    -285.396     -40.916
  P     -946.296    -284.657     -43.625
  C     -944.922    -285.495     -45.668
  O     -946.167    -285.007     -45.183
  C     -945.023    -285.744     -47.173
  O     -945.746    -286.972     -47.424
  C     -945.787    -284.669     -47.927
  O     -945.009    -283.510     -48.162
  C     -946.155    -285.409     -49.206
  O     -945.081    -285.398     -50.148
  C     -946.401    -286.839     -48.698
  N     -950.852    -287.000     -51.194
  C     -949.591    -286.738     -51.613
  N     -948.456    -286.731     -50.887
  C     -948.710    -287.059     -49.613
  C     -949.936    -287.350     -49.034
  C     -951.050    -287.314     -49.888
  N     -952.344    -287.554     -49.470
  N     -949.794    -287.601     -47.683
  C     -948.507    -287.460     -47.436
  N     -947.813    -287.145     -48.571
  O     -944.855    -284.080     -43.246
  O     -947.391    -283.704     -43.269
  H     -945.461    -285.694     -51.005
  H     -944.938    -283.423     -42.530
  H     -949.487    -286.513     -52.664
  H     -948.044    -287.582     -46.469
  H     -945.965    -287.596     -49.367
  H     -947.030    -284.965     -49.684
  H     -946.712    -284.414     -47.393
  H     -944.003    -285.862     -47.575
  H     -944.676    -286.431     -45.158
  H     -944.147    -284.755     -45.450
  H     -953.091    -287.447     -50.117
  H     -952.508    -287.677     -48.472
  P     -945.789    -282.139     -48.428
  C     -944.517    -280.401     -46.940
  O     -944.728    -280.945     -48.241
  O     -946.752    -281.979     -47.165
  O     -946.538    -282.089     -49.716
  H     -947.593    -281.567     -47.443
  H     -943.785    -279.622     -46.993
  H     -944.170    -281.171     -46.283
  H     -945.437    -280.001     -46.567

 6  7  8  9  10  11  12  13  14  15  25  28  32  33  34  35 0
 6-311+G(2d,p)
 ****
 36  37  40 0
 6-311+G(2d,p)
 ****
 1  2  3  4  5  16  17  18  19  20  21  22  23  24 0
 3-21G
 ****
 26  27  29  30  31  38  39 41  42  43  44  45  46  47  48 0
 3-21G
 ****


