%nproc=1
%NoSave
%Mem=1900MB
#P OB98/GEN NMR

erre ene a

0 1
  C     -118.148     439.521     773.641
  O     -116.927     438.968     774.100
  H     -118.739     439.839     774.510
  H     -118.725     438.760     773.090
  H     -117.960     440.384     773.001
  P     -115.890     438.418     773.014
  C     -115.992     436.661     771.105
  O     -116.644     437.220     772.254
  C     -115.998     435.142     771.195
  O     -117.316     434.655     771.520
  C     -115.587     434.455     769.892
  O     -114.180     434.430     769.765
  C     -116.199     433.065     770.119
  O     -115.366     432.322     771.027
  C     -117.535     433.430     770.784
  N     -120.441     431.268     767.224
  C     -119.356     430.766     767.913
  N     -118.961     429.506     767.574
  N     -118.707     431.409     768.828
  C     -119.166     432.681     769.018
  C     -120.218     433.310     768.378
  C     -120.969     432.538     767.397
  O     -121.954     432.947     766.780
  N     -120.346     434.611     768.791
  C     -119.392     434.764     769.693
  N     -118.639     433.632     769.851
  O     -114.528     438.047     773.519
  O     -115.825     439.574     771.908
  H     -115.840     431.488     771.233
  H     -115.100     440.196     772.096
  H     -120.890     430.719     766.517
  H     -119.216     435.665     770.251
  H     -117.853     432.667     771.509
  H     -116.288     432.481     769.203
  H     -119.243     429.086     766.706
  H     -116.072     434.911     769.021
  H     -118.141     429.137     768.031
  H     -115.326     434.849     772.017
  H     -114.961     437.052     771.099
  H     -116.494     436.989     770.189
  P     -113.480     434.540     768.328
  C     -113.983     433.313     766.098
  O     -113.950     433.230     767.515
  O     -112.006     434.755     768.346
  O     -114.280     435.708     767.566
  H     -113.912     436.619     767.735
  H     -114.311     432.378     765.694
  H     -113.003     433.536     765.731
  H     -114.660     434.087     765.802

 6  7  8  9  10  11  12  13  14  15  26  29  33  34 0
 6-311+G(2d,p)
 ****
 36  38  39  40  41 0
 6-311+G(2d,p)
 ****
 1  2  3  4  5  16  17  18  19  20  21  22  23  24  25 0
 3-21G
 ****
 27  28  30  31  32  35  37  42  43  44  45  46  47 0
 3-21G
 ****
 48  49 0
 3-21G
 ****


