%nproc=1
%NoSave
%Mem=1900MB
#P OB98/GEN NMR

erre ene a

0 1
  C     -894.140     957.510    -899.032
  O     -893.160     956.464    -898.952
  P     -893.080     955.666    -897.552
  C     -893.370     956.305    -895.052
  O     -893.220     956.738    -896.382
  C     -892.990     957.421    -894.062
  O     -893.820     958.622    -894.352
  C     -893.290     957.108    -892.612
  O     -892.310     956.230    -892.052
  C     -893.310     958.520    -892.012
  O     -891.970     958.980    -891.822
  C     -893.990     959.327    -893.122
  N     -897.530     962.490    -891.192
  C     -896.190     962.588    -891.202
  N     -895.320     961.674    -891.752
  C     -895.960     960.616    -892.242
  C     -897.340     960.378    -892.272
  C     -898.130     961.371    -891.722
  N     -899.540     961.307    -891.662
  N     -897.640     959.153    -892.872
  C     -896.480     958.700    -893.222
  N     -895.450     959.524    -892.902
  O     -891.520     955.236    -897.502
  O     -894.010     954.489    -897.472
  H     -891.520     958.892    -892.692
  H     -891.450     954.363    -897.052
  H     -895.740     963.476    -890.802
  H     -896.330     957.706    -893.702
  H     -893.540     960.338    -893.252
  H     -893.830     958.559    -891.032
  H     -894.310     956.633    -892.472
  H     -891.940     957.688    -894.192
  H     -892.680     955.456    -894.872
  H     -900.000     962.024    -891.122
  H     -899.940     960.423    -891.912
  H     -894.380     955.922    -894.872
  P     -892.810     955.128    -891.032
  C     -894.190     955.292    -888.872
  O     -893.370     955.973    -889.792
  O     -891.410     954.550    -890.472
  O     -893.730     954.097    -891.582
  H     -890.820     955.289    -890.202
  H     -894.460     955.947    -888.052
  H     -893.620     954.426    -888.452
  H     -895.130     954.922    -889.342
  H     -894.099     957.964    -900.000
  H     -893.936     958.247    -898.284
  H     -895.115     957.099    -898.871

 3  4  5  6  7  8  9  10  11  12  22  25  29  30  31  32 0
 6-311+G(2d,p)
 ****
 33  36  37 0
 6-311+G(2d,p)
 ****
 1  2  13  14  15  16  17  18  19  20  21  23  24  26 0
 3-21G
 ****
 27  28  34  35  38  39  40  41  42  43  44  45  46  47  48 0
 3-21G
 ****


