%nproc=1
%NoSave
%Mem=1900MB
#P OB98/GEN NMR

erre ene a

0 1
  C     -344.290    -158.002     243.702
  O     -343.361    -158.852     244.348
  H     -345.309    -158.294     243.962
  H     -344.118    -156.975     244.036
  H     -344.153    -158.048     242.617
  P     -343.429    -160.408     243.970
  C     -340.906    -160.876     244.364
  O     -342.239    -161.121     244.780
  C     -339.946    -161.820     245.084
  O     -339.753    -161.389     246.446
  C     -340.432    -163.265     245.182
  O     -340.204    -163.979     243.972
  C     -339.548    -163.785     246.308
  O     -338.237    -164.090     245.801
  C     -339.479    -162.571     247.248
  N     -340.480    -164.564     251.860
  C     -339.390    -164.632     251.059
  N     -339.194    -164.058     249.855
  C     -340.258    -163.326     249.496
  C     -341.433    -163.138     250.211
  C     -341.526    -163.799     251.450
  N     -342.680    -163.771     252.227
  N     -342.311    -162.330     249.507
  C     -341.686    -162.062     248.385
  N     -340.443    -162.630     248.329
  O     -342.915    -160.428     242.447
  O     -344.777    -161.040     244.106
  H     -338.323    -164.903     245.267
  H     -343.686    -160.438     241.850
  H     -338.572    -165.240     251.437
  H     -342.095    -161.454     247.582
  H     -338.485    -162.440     247.689
  H     -339.936    -164.698     246.772
  H     -341.482    -163.319     245.493
  H     -338.971    -161.771     244.577
  H     -340.630    -159.840     244.599
  H     -342.799    -164.604     252.794
  H     -343.500    -163.417     251.750
  H     -340.843    -161.024     243.280
  P     -341.358    -164.965     243.459
  C     -341.230    -164.406     240.932
  O     -340.979    -165.372     241.951
  O     -342.612    -163.985     243.282
  O     -341.689    -166.098     244.374
  H     -343.371    -164.310     243.811
  H     -340.934    -164.803     239.983
  H     -340.670    -163.517     241.137
  H     -342.274    -164.173     240.911

 6  7  8  9  10  11  12  13  14  15  25  28  32  33  34  35 0
 6-311+G(2d,p)
 ****
 36  39  40 0
 6-311+G(2d,p)
 ****
 1  2  3  4  5  16  17  18  19  20  21  22  23  24 0
 3-21G
 ****
 26  27  29  30  31  37  38  41  42  43  44  45  46  47  48 0
 3-21G
 ****


