%nproc=1
%NoSave
%Mem=1900MB
#P OB98/GEN NMR

erre ene a

0 1
  C      -12.367      -4.615      -6.629
  O      -11.518      -5.318      -5.744
  H      -11.871      -3.689      -6.930
  H      -13.307      -4.366      -6.131
  H      -12.566      -5.215      -7.521
  P      -12.057      -6.727      -5.199
  C      -10.799      -8.233      -6.905
  O      -12.049      -7.730      -6.450
  C      -10.703      -8.076      -8.419
  O      -10.586      -6.675      -8.759
  C       -9.481      -8.746      -9.031
  O       -9.644     -10.145      -9.172
  C       -9.377      -8.010     -10.357
  O      -10.253      -8.577     -11.340
  C       -9.834      -6.594      -9.991
  N       -7.439      -2.576     -12.034
  C       -8.584      -3.210     -12.369
  N       -9.162      -4.269     -11.765
  C       -8.449      -4.648     -10.691
  C       -7.268      -4.097     -10.226
  C       -6.757      -3.006     -10.948
  N       -5.580      -2.375     -10.622
  N       -6.813      -4.786      -9.119
  C       -7.707      -5.731      -8.914
  N       -8.715      -5.685      -9.836
  O      -13.611      -6.445      -4.946
  O      -11.376      -7.233      -3.972
  H      -10.182      -8.006     -12.130
  H      -13.762      -6.282      -3.995
  H       -9.096      -2.823     -13.245
  H       -7.665      -6.470      -8.124
  H      -10.499      -6.163     -10.749
  H       -8.362      -8.057     -10.750
  H       -8.589      -8.521      -8.434
  H      -11.626      -8.460      -8.871
  H      -10.720      -9.294      -6.646
  H       -9.994      -7.684      -6.407
  H       -5.239      -1.644     -11.224
  H       -5.006      -2.760      -9.883
  P       -9.264     -11.069      -7.919
  C      -11.603     -12.210      -8.075
  O      -10.638     -11.562      -7.258
  O       -8.674     -10.038      -6.847
  O       -8.299     -12.164      -8.226
  H       -7.951     -10.460      -6.344
  H      -12.454     -12.472      -7.482
  H      -11.176     -13.096      -8.497
  H      -11.906     -11.550      -8.861

 6  7  8  9  10  11  12  13  14  15  25  28  32  33  34  35 0
 6-311+G(2d,p)
 ****
 36  37  40 0
 6-311+G(2d,p)
 ****
 1  2  3  4  5  16  17  18  19  20  21  22  23  24 0
 3-21G
 ****
 26  27  29  30  31  38  39 41  42  43  44  45  46  47  48 0
 3-21G
 ****


