%nproc=1
%NoSave
%Mem=1900MB
#P OB98/GEN NMR

erre ene a

0 1
  C      415.703     489.741      93.521
  O      414.552     490.186      94.209
  H      415.518     488.728      93.151
  H      416.565     489.716      94.191
  H      415.911     490.392      92.666
  P      414.585     491.625      94.913
  C      414.744     494.073      94.109
  O      414.529     492.716      93.737
  C      413.580     494.947      93.623
  O      413.448     494.750      92.193
  C      412.248     494.569      94.288
  O      411.584     495.682      94.880
  C      411.510     493.814      93.186
  O      410.103     493.849      93.287
  C      412.074     494.431      91.905
  N      411.981     493.560      90.734
  C      410.754     493.495      90.082
  O      409.751     494.132      90.395
  N      410.707     492.652      89.000
  C      411.728     491.886      88.530
  O      411.624     491.153      87.553
  C      412.991     491.980      89.277
  C      413.060     492.799      90.327
  O      415.678     491.835      95.907
  O      413.142     491.759      95.594
  H      409.836     494.781      93.430
  H      413.215     491.591      96.552
  H      409.824     492.606      88.511
  H      413.823     491.378      88.936
  H      413.977     492.897      90.901
  H      411.557     495.361      91.665
  H      411.811     492.762      93.236
  H      412.411     493.891      95.134
  H      413.835     495.999      93.793
  H      415.684     494.403      93.650
  H      414.834     494.147      95.198
  P      411.744     496.124      96.409
  C      414.005     496.476      97.680
  O      413.174     496.816      96.585
  O      411.361     495.098      97.420
  O      410.704     497.352      96.549
  H      410.362     497.326      97.466
  H      414.913     497.039      97.627
  H      414.231     495.431      97.645
  H      413.499     496.701      98.595

 6  7  8  9  10  11  12  13  14  15  16  26  31  32  33  34  35 0
 6-311+G(2d,p)
 ****
 36  37 0
 6-311+G(2d,p)
 ****
 1  2  3  4  5  17  18  19  20  21  22  23  24  25 0
 3-21G
 ****
 27  28  29  30  38  39  40  41  42  43  44  45 0
 3-21G
 ****


