%nproc=1
%NoSave
%Mem=1900MB
#P OB98/GEN NMR

erre ene a

0 1
  C     -121.616     512.498     -93.047
  O     -121.703     511.409     -93.952
  H     -122.090     513.382     -93.479
  H     -122.140     512.228     -92.127
  H     -120.569     512.711     -92.812
  P     -120.967     511.593     -95.365
  C     -121.445     513.120     -97.411
  O     -121.560     512.940     -96.008
  C     -122.106     514.430     -97.833
  O     -123.537     514.319     -97.722
  C     -121.715     515.635     -96.986
  O     -120.457     516.169     -97.368
  C     -122.852     516.597     -97.330
  O     -122.603     517.208     -98.609
  C     -124.052     515.647     -97.426
  N     -126.946     518.325     -94.150
  C     -126.361     518.660     -95.327
  N     -125.629     517.883     -96.155
  C     -125.525     516.636     -95.660
  C     -126.080     516.138     -94.495
  C     -126.816     517.049     -93.712
  N     -127.344     516.706     -92.480
  N     -125.742     514.804     -94.326
  C     -124.988     514.514     -95.363
  N     -124.836     515.582     -96.201
  O     -121.611     510.427     -96.256
  O     -119.475     511.500     -95.326
  H     -121.746     517.669     -98.538
  H     -121.010     509.656     -96.256
  H     -126.508     519.684     -95.645
  H     -124.529     513.549     -95.541
  H     -124.733     515.921     -98.238
  H     -122.965     517.404     -96.595
  H     -121.750     515.402     -95.917
  H     -121.864     514.600     -98.894
  H     -121.935     512.286     -97.929
  H     -127.417     517.496     -91.840
  H     -126.994     515.840     -92.095
  H     -120.382     513.126     -97.678
  P     -119.559     516.862     -96.235
  C     -118.967     519.371     -96.009
  O     -119.997     518.410     -96.198
  O     -118.104     516.900     -96.898
  O     -119.544     516.162     -94.920
  H     -117.463     516.448     -96.307
  H     -119.392     520.353     -96.004
  H     -118.257     519.294     -96.805
  H     -118.477     519.190     -95.075

 6  7  8  9  10  11  12  13  14  15  25  28  32  33  34  35 0
 6-311+G(2d,p)
 ****
 36  39  40 0
 6-311+G(2d,p)
 ****
 1  2  3  4  5  16  17  18  19  20  21  22  23  24 0
 3-21G
 ****
 26  27  29  30  31  37  38  41  42  43  44  45  46  47  48 0
 3-21G
 ****


