%nproc=1
%NoSave
%Mem=1900MB
#P OB98/GEN NMR

erre ene a

0 1
  C      206.326    -437.334    -925.688
  O      205.165    -436.643    -926.103
  H      206.538    -438.165    -926.362
  H      207.171    -436.639    -925.712
  H      206.208    -437.701    -924.667
  P      203.797    -437.482    -926.127
  C      203.856    -437.152    -928.706
  O      203.663    -438.052    -927.620
  C      204.630    -437.846    -929.824
  O      205.714    -438.630    -929.267
  C      203.796    -438.843    -930.641
  O      203.020    -438.182    -931.633
  C      204.896    -439.683    -931.263
  O      205.497    -438.957    -932.357
  C      205.891    -439.804    -930.105
  N      207.654    -444.482    -928.973
  C      208.081    -443.541    -929.846
  N      207.549    -442.321    -930.088
  C      206.472    -442.113    -929.320
  C      205.915    -442.974    -928.396
  C      206.559    -444.216    -928.213
  N      206.122    -445.176    -927.336
  N      204.786    -442.425    -927.813
  C      204.695    -441.233    -928.363
  N      205.677    -440.991    -929.293
  O      202.658    -436.358    -926.061
  O      203.649    -438.510    -925.051
  H      206.345    -439.396    -932.551
  H      201.819    -436.742    -925.751
  H      208.958    -443.806    -930.428
  H      203.920    -440.501    -928.135
  H      206.932    -439.821    -930.438
  H      204.535    -440.623    -931.663
  H      203.167    -439.476    -929.994
  H      205.071    -437.073    -930.471
  H      204.426    -436.284    -928.355
  H      206.542    -446.090    -927.421
  H      205.224    -445.056    -926.881
  H      202.879    -436.814    -929.077
  P      201.420    -438.274    -931.495
  C      201.259    -439.195    -933.929
  O      200.954    -439.389    -932.542
  O      200.925    -436.900    -932.162
  O      200.917    -438.436    -930.097
  H      200.056    -436.624    -931.803
  H      200.884    -440.021    -934.496
  H      202.319    -439.128    -934.055
  H      200.801    -438.290    -934.272

 6  7  8  9  10  11  12  13  14  15  25  28  32  33  34  35 0
 6-311+G(2d,p)
 ****
 36  39  40 0
 6-311+G(2d,p)
 ****
 1  2  3  4  5  16  17  18  19  20  21  22  23  24 0
 3-21G
 ****
 26  27  29  30  31  37  38  41  42  43  44  45  46  47 0
 3-21G
 ****
 48 0
 3-21G
 ****


