%nproc=1
%NoSave
%Mem=1900MB
#P OB98/GEN NMR

erre ene a

0 1
  C      521.155     -78.607    -899.230
  O      520.036     -78.920    -898.430
  H      521.273     -79.377    -900.000
  H      522.058     -78.592    -898.600
  H      521.024     -77.634    -899.720
  P      519.558     -77.811    -897.370
  C      520.604     -76.781    -895.230
  O      520.627     -77.843    -896.170
  C      521.784     -76.899    -894.280
  O      523.021     -76.600    -894.960
  C      521.723     -75.959    -893.070
  O      520.895     -76.483    -892.030
  C      523.182     -75.931    -892.660
  O      523.511     -77.140    -891.960
  C      523.897     -75.908    -894.030
  N      527.121     -71.991    -893.910
  C      527.174     -73.201    -893.240
  N      528.215     -73.402    -892.430
  N      526.270     -74.140    -893.370
  C      525.255     -73.801    -894.220
  C      525.097     -72.638    -894.930
  C      526.115     -71.623    -894.790
  O      526.129     -70.532    -895.370
  N      523.966     -72.664    -895.680
  C      523.423     -73.842    -895.430
  N      524.164     -74.568    -894.520
  O      518.247     -78.453    -896.720
  O      519.280     -76.454    -897.950
  H      523.336     -77.886    -892.570
  H      517.595     -77.739    -896.530
  H      527.833     -71.304    -893.760
  H      522.490     -74.209    -895.850
  H      524.851     -76.439    -894.010
  H      523.424     -75.100    -892.010
  H      528.924     -72.696    -892.240
  H      521.407     -74.945    -893.380
  H      528.288     -74.294    -891.950
  H      521.853     -77.944    -893.940
  H      519.662     -76.822    -894.650
  H      520.646     -75.834    -895.770
  P      520.307     -75.440    -890.970
  C      521.496     -73.652    -889.490
  O      521.557     -74.944    -890.090
  O      519.503     -76.393    -889.950
  O      519.444     -74.367    -891.550
  H      518.812     -75.872    -889.480
  H      522.397     -73.470    -888.942
  H      520.659     -73.607    -888.825
  H      521.387     -72.909    -890.253

 6  7  8  9  10  11  12  13  14  15  26  29  33  34 0
 6-311+G(2d,p)
 ****
 36  38  39  40  41 0
 6-311+G(2d,p)
 ****
 1  2  3  4  5  16  17  18  19  20  21  22  23  24  25 0
 3-21G
 ****
 27  28  30  31  32  35  37  42  43  44  45  46  47 0
 3-21G
 ****
 48  49 0
 3-21G
 ****


