%nproc=1
%NoSave
%Mem=1900MB
#P OB98/GEN NMR

erre ene a

0 1
  C     -179.084      51.809     155.046
  O     -177.988      51.014     154.639
  H     -178.704      52.747     155.459
  H     -179.664      51.291     155.816
  H     -179.726      52.031     154.187
  P     -178.332      49.537     154.104
  C     -179.501      47.500     155.243
  O     -178.978      48.813     155.388
  C     -179.493      46.783     156.591
  O     -178.143      46.675     157.102
  C     -180.285      47.493     157.691
  O     -181.687      47.312     157.580
  C     -179.715      46.792     158.913
  O     -180.270      45.465     159.008
  C     -178.216      46.747     158.554
  N     -177.473      47.916     159.048
  C     -177.135      47.917     160.404
  O     -177.456      46.982     161.136
  N     -176.471      49.008     160.919
  C     -176.149      49.997     160.143
  N     -175.493      51.048     160.712
  C     -176.473      50.032     158.705
  C     -177.126      48.970     158.229
  O     -176.894      48.838     153.992
  O     -179.154      49.463     152.861
  H     -179.694      44.966     159.615
  H     -177.004      47.871     153.810
  H     -176.195      50.887     158.105
  H     -177.399      48.925     157.181
  H     -177.741      45.840     158.953
  H     -179.946      47.301     159.850
  H     -180.031      48.562     157.745
  H     -179.866      45.763     156.428
  H     -175.337      51.024     161.709
  H     -178.875      46.956     154.524
  H     -175.335      51.925     160.229
  H     -180.526      47.542     154.863
  P     -182.618      48.590     157.868
  C     -183.314      49.858     160.039
  O     -182.870      48.636     159.453
  O     -184.036      48.150     157.278
  O     -182.130      49.874     157.259
  H     -184.510      48.913     156.902
  H     -183.434      49.725     161.094
  H     -184.251      50.141     159.606
  H     -182.590      50.625     159.856

 6  7  8  9  10  11  12  13  14  15  16  26  30  31  32  33  35 0
 6-311+G(2d,p)
 ****
 37  38 0
 6-311+G(2d,p)
 ****
 1  2  3  4  5  17  18  19  20  21  22  23  24  25 0
 3-21G
 ****
 27  28  29  34  36  39  40  41  42  43  44  45  46 0
 3-21G
 ****


