%nproc=1
%NoSave
%Mem=1900MB
#P OB98/GEN NMR

erre ene a

0 1
  C     -143.033     287.711     208.570
  O     -143.346     287.816     207.177
  P     -143.033     289.225     206.471
  C     -142.312     287.700     204.494
  O     -142.820     288.963     204.906
  C     -142.340     287.586     202.972
  O     -143.690     287.599     202.460
  C     -141.639     288.744     202.268
  O     -140.229     288.615     202.356
  C     -142.201     288.603     200.854
  O     -141.519     287.562     200.143
  C     -143.654     288.181     201.132
  N     -148.084     289.763     199.115
  C     -147.394     288.604     198.992
  N     -146.220     288.262     199.560
  C     -145.760     289.256     200.338
  C     -146.349     290.490     200.563
  C     -147.567     290.734     199.911
  N     -148.258     291.919     200.022
  N     -145.579     291.251     201.419
  C     -144.530     290.495     201.687
  N     -144.600     289.279     201.064
  O     -141.566     289.582     207.004
  O     -144.018     290.295     206.808
  H     -141.661     286.729     200.637
  H     -141.612     290.319     207.640
  H     -147.851     287.856     198.351
  H     -143.698     290.788     202.319
  H     -144.003     287.413     200.430
  H     -142.112     289.522     200.268
  H     -141.954     289.702     202.704
  H     -141.867     286.639     202.690
  H     -142.905     286.891     204.935
  H     -149.086     292.039     199.457
  H     -147.843     292.682     200.539
  H     -141.291     287.586     204.880
  P     -139.402     289.843     202.973
  C     -137.632     289.005     204.629
  O     -137.955     289.215     203.267
  O     -140.039     289.964     204.432
  O     -139.416     291.087     202.152
  H     -140.131     289.087     204.861
  H     -136.639     288.545     204.687
  H     -138.356     288.336     205.093
  H     -137.607     289.959     205.161
  H     -143.286     286.732     208.920
  H     -143.592     288.441     209.117
  H     -141.987     287.882     208.714

 3  4  5  6  7  8  9  10  11  12  22  25  29  30  31  32 0
 6-311+G(2d,p)
 ****
 33  36  37 0
 6-311+G(2d,p)
 ****
 1  2  13  14  15  16  17  18  19  20  21  23  24  26 0
 3-21G
 ****
 27  28  34  35  38  39  40  41  42  43  44  45  46  47  48 0
 3-21G
 ****


