%nproc=1
%NoSave
%Mem=1900MB
#P OB98/GEN NMR

erre ene a

0 1
  C     -384.339     414.067    -341.904
  O     -383.620     413.230    -341.015
  H     -385.398     413.802    -341.859
  H     -383.983     413.921    -342.928
  H     -384.223     415.115    -341.613
  P     -382.041     413.483    -340.916
  C     -379.979     412.208    -341.835
  O     -381.392     412.209    -341.649
  C     -379.557     410.998    -342.664
  O     -379.779     409.775    -341.941
  C     -380.314     410.835    -343.977
  O     -379.784     411.693    -344.979
  C     -380.044     409.370    -344.286
  O     -378.733     409.229    -344.862
  C     -380.085     408.721    -342.893
  N     -382.888     404.424    -343.001
  C     -381.728     404.751    -343.611
  N     -381.061     405.924    -343.570
  C     -381.709     406.822    -342.804
  C     -382.909     406.627    -342.130
  C     -383.503     405.362    -342.237
  N     -384.682     405.018    -341.606
  N     -383.280     407.769    -341.446
  C     -382.291     408.621    -341.672
  N     -381.346     408.104    -342.513
  O     -381.519     413.800    -339.553
  O     -381.847     414.645    -342.009
  H     -378.675     409.837    -345.627
  H     -382.415     414.484    -342.779
  H     -381.271     403.963    -344.205
  H     -382.217     409.616    -341.228
  H     -379.305     407.944    -342.784
  H     -380.753     408.962    -345.012
  H     -381.392     410.983    -343.836
  H     -378.475     411.078    -342.854
  H     -379.472     412.189    -340.868
  H     -385.119     404.157    -341.878
  H     -385.185     405.751    -341.143
  H     -379.714     413.132    -342.352
  P     -380.763     412.498    -345.969
  C     -382.458     411.872    -347.800
  O     -381.390     411.407    -346.969
  O     -380.138     413.677    -346.642
  O     -381.999     412.915    -345.058
  H     -382.317     413.816    -345.297
  H     -382.800     411.072    -348.422
  H     -382.109     412.676    -348.413
  H     -383.264     412.216    -347.186

 6  7  8  9  10  11  12  13  14  15  25  28  32  33  34  35 0
 6-311+G(2d,p)
 ****
 36  39  40 0
 6-311+G(2d,p)
 ****
 1  2  3  4  5  16  17  18  19  20  21  22  23  24 0
 3-21G
 ****
 26  27  29  30  31  37  38  41  42  43  44  45  46  47 0
 3-21G
 ****
 48 0
 3-21G
 ****


