%nproc=1
%NoSave
%Mem=1900MB
#P OB98/GEN NMR

erre ene a

0 1
  C       92.204     622.781     161.508
  O       92.291     624.174     161.286
  P       92.516     625.116     162.568
  C       94.992     625.818     162.152
  O       93.620     626.203     162.162
  C       95.844     626.936     161.559
  O       95.609     627.043     160.143
  C       95.560     628.321     162.124
  O       96.121     628.470     163.420
  C       96.190     629.198     161.051
  O       97.615     629.244     161.227
  C       95.839     628.433     159.763
  N       94.067     630.975     155.690
  C       95.315     630.648     156.075
  N       95.710     629.988     157.186
  C       94.651     629.655     157.935
  C       93.320     629.932     157.683
  C       93.034     630.626     156.499
  N       91.754     630.961     156.112
  N       92.513     629.443     158.694
  C       93.349     628.864     159.533
  N       94.648     628.950     159.110
  O       93.293     624.158     163.586
  O       91.261     625.670     163.168
  H       97.784     629.589     162.127
  H       93.042     624.355     164.511
  H       96.112     630.964     155.402
  H       93.060     628.375     160.453
  H       96.652     628.447     159.033
  H       95.824     630.228     161.071
  H       94.479     628.501     162.173
  H       96.903     626.674     161.713
  H       95.107     624.918     161.535
  H       91.651     631.587     155.326
  H       91.003     630.823     156.783
  H       95.306     625.582     163.171
  P       95.571     629.672     164.331
  C       93.776     628.089     165.272
  O       94.877     628.928     165.576
  O       94.310     630.170     163.473
  O       96.575     630.713     164.673
  H       93.742     629.436     163.204
  H       93.438     627.612     166.187
  H       94.073     627.325     164.552
  H       92.953     628.690     164.861
  H       92.055     622.280     160.575
  H       91.380     622.574     162.159
  H       93.111     622.434     161.958

 3  4  5  6  7  8  9  10  11  12  22  25  29  30  31  32 0
 6-311+G(2d,p)
 ****
 33  36  37 0
 6-311+G(2d,p)
 ****
 1  2  13  14  15  16  17  18  19  20  21  23  24  26 0
 3-21G
 ****
 27  28  34  35  38  39  40  41  42  43  44  45  46  47  48 0
 3-21G
 ****


