%nproc=1
%NoSave
%Mem=1900MB
#P OB98/GEN NMR

erre ene a

0 1
  C        7.321     130.060     -18.019
  O        7.840     130.508     -16.781
  H        6.885     130.914     -18.545
  H        6.540     129.312     -17.860
  H        8.119     129.640     -18.637
  P        8.531     129.433     -15.816
  C       10.889     130.351     -16.338
  O       10.018     129.228     -16.383
  C       12.121     130.091     -17.199
  O       11.772     130.110     -18.596
  C       13.233     131.124     -17.014
  O       13.992     130.833     -15.850
  C       14.012     130.921     -18.305
  O       14.811     129.727     -18.209
  C       12.875     130.722     -19.324
  N       10.806     132.744     -23.487
  C       11.218     131.446     -23.241
  N       11.100     130.578     -24.267
  N       11.720     131.048     -22.101
  C       11.841     132.043     -21.192
  C       11.486     133.365     -21.323
  C       10.882     133.783     -22.571
  O       10.484     134.920     -22.824
  N       11.824     134.092     -20.210
  C       12.344     133.202     -19.391
  N       12.395     131.943     -19.945
  O        7.782     128.151     -15.606
  O        8.763     130.229     -14.449
  H       14.962     129.418     -19.121
  H        8.014     130.105     -13.837
  H       10.444     132.994     -24.392
  H       12.702     133.413     -18.389
  H       13.158     130.034     -20.131
  H       14.687     131.747     -18.533
  H       10.996     130.892     -25.224
  H       12.841     132.146     -17.002
  H       11.443     129.637     -24.124
  H       12.484     129.080     -16.969
  H       11.176     130.506     -15.294
  H       10.371     131.248     -16.699
  P       14.284     131.965     -14.746
  C       13.655     130.434     -12.761
  O       13.325     131.593     -13.516
  O       14.149     133.367     -15.237
  O       15.731     131.610     -14.180
  H       16.468     132.030     -14.691
  H       12.939     130.303     -11.977
  H       14.631     130.550     -12.337
  H       13.644     129.576     -13.401

 6  7  8  9  10  11  12  13  14  15  26  29  33  34 0
 6-311+G(2d,p)
 ****
 36  38  39  40  41 0
 6-311+G(2d,p)
 ****
 1  2  3  4  5  16  17  18  19  20  21  22  23  24  25 0
 3-21G
 ****
 27  28  30  31  32  35  37  42  43  44  45  46  47 0
 3-21G
 ****
 48  49 0
 3-21G
 ****


