%nproc=1
%NoSave
%Mem=1900MB
#P OB98/GEN NMR

erre ene a

0 1
  C      162.021     341.274     476.406
  O      161.957     341.316     474.973
  P      162.291     342.645     474.145
  C      160.114     344.013     473.951
  O      161.334     343.829     474.663
  C      159.352     345.251     474.433
  O      158.922     345.089     475.800
  C      160.169     346.544     474.404
  O      160.238     347.059     473.089
  C      159.398     347.406     475.395
  O      158.246     347.990     474.763
  C      158.965     346.374     476.447
  N      159.201     346.828     481.533
  C      158.163     346.883     480.670
  N      158.180     346.760     479.323
  C      159.434     346.527     478.891
  C      160.587     346.445     479.651
  C      160.438     346.607     481.041
  N      161.497     346.564     481.918
  N      161.690     346.222     478.852
  C      161.200     346.154     477.625
  N      159.843     346.331     477.601
  O      162.284     342.465     472.664
  O      163.741     343.093     474.655
  H      157.788     348.531     475.431
  H      164.200     343.585     473.948
  H      157.185     347.056     481.119
  H      161.787     345.975     476.735
  H      157.950     346.573     476.816
  H      160.000     348.228     475.803
  H      161.178     346.356     474.791
  H      158.457     345.357     473.814
  H      159.489     343.122     474.101
  H      161.313     346.722     482.896
  H      162.434     346.449     481.552
  H      160.341     344.108     472.885
  P      161.568     346.856     472.213
  C      161.873     349.363     471.770
  O      162.429     348.201     472.349
  O      161.351     346.376     470.817
  O      162.421     345.804     473.068
  H      162.976     345.272     472.459
  H      162.051     349.356     470.690
  H      162.358     350.241     472.205
  H      160.799     349.423     471.965
  H      161.760     340.294     476.746
  H      161.336     341.987     476.815
  H      163.014     341.510     476.726

 3  4  5  6  7  8  9  10  11  12  22  25  29  30  31  32 0
 6-311+G(2d,p)
 ****
 33  36  37 0
 6-311+G(2d,p)
 ****
 1  2  13  14  15  16  17  18  19  20  21  23  24  26 0
 3-21G
 ****
 27  28  34  35  38  39  40  41  42  43  44  45  46  47  48 0
 3-21G
 ****


