%nproc=1
%NoSave
%Mem=1900MB
#P OB98/GEN NMR

erre ene a

0 1
  C     -224.172     -90.309     576.773
  O     -223.787     -89.035     577.249
  H     -223.340     -91.005     576.920
  H     -224.411     -90.272     575.706
  H     -225.036     -90.676     577.334
  P     -224.736     -87.785     576.913
  C     -225.728     -87.737     579.298
  O     -224.970     -87.035     578.315
  C     -225.353     -87.287     580.710
  O     -224.022     -87.742     581.036
  C     -225.307     -85.776     580.881
  O     -226.573     -85.154     580.825
  C     -224.444     -85.612     582.122
  O     -225.173     -85.702     583.340
  C     -223.479     -86.817     582.002
  N     -222.123     -86.403     581.658
  C     -221.328     -85.989     582.721
  O     -221.721     -85.945     583.885
  N     -220.064     -85.581     582.393
  C     -219.548     -85.504     581.131
  O     -218.419     -85.091     580.904
  C     -220.448     -85.931     580.047
  C     -221.675     -86.353     580.353
  O     -226.003     -88.107     576.180
  O     -223.776     -86.781     576.123
  H     -224.536     -85.556     584.068
  H     -224.296     -86.100     575.635
  H     -219.468     -85.289     583.152
  H     -220.071     -85.878     579.033
  H     -222.355     -86.672     579.568
  H     -223.432     -87.360     582.955
  H     -223.932     -84.646     582.126
  H     -224.730     -85.358     580.047
  H     -226.049     -87.747     581.419
  H     -225.506     -88.804     579.187
  H     -226.800     -87.580     579.117
  P     -226.790     -83.649     580.335
  C     -228.341     -84.463     578.417
  O     -228.171     -83.578     579.516
  O     -225.592     -82.947     579.781
  O     -227.176     -82.919     581.721
  H     -226.814     -82.012     581.687
  H     -229.301     -84.301     577.974
  H     -228.273     -85.474     578.760
  H     -227.577     -84.280     577.690

 6  7  8  9  10  11  12  13  14  15  16  26  31  32  33  34  35 0
 6-311+G(2d,p)
 ****
 36  37 0
 6-311+G(2d,p)
 ****
 1  2  3  4  5  17  18  19  20  21  22  23  24  25 0
 3-21G
 ****
 27  28  29  30  38  39  40  41  42  43  44  45 0
 3-21G
 ****


