%nproc=1
%NoSave
%Mem=1900MB
#P OB98/GEN NMR

erre ene a

0 1
  C      705.839    -899.150    -702.860
  O      705.503    -899.250    -704.229
  H      706.492    -900.000    -702.601
  H      704.946    -899.210    -702.236
  H      706.374    -898.230    -702.674
  P      704.420    -898.220    -704.833
  C      706.396    -897.360    -706.245
  O      705.263    -896.990    -705.426
  C      707.130    -896.110    -706.734
  O      706.214    -895.390    -707.644
  C      707.563    -895.110    -705.629
  O      708.809    -894.580    -705.984
  C      706.454    -894.090    -705.683
  O      706.877    -892.850    -705.132
  C      706.094    -894.050    -707.170
  N      704.746    -893.490    -707.384
  C      704.670    -892.220    -707.855
  O      705.688    -891.570    -708.132
  N      703.414    -891.630    -708.000
  C      702.349    -892.270    -707.627
  N      701.186    -891.640    -707.724
  C      702.414    -893.650    -707.050
  C      703.607    -894.190    -706.977
  O      703.315    -897.830    -703.919
  O      703.864    -898.990    -706.139
  H      707.716    -892.570    -705.552
  H      703.075    -899.510    -705.893
  H      701.518    -894.160    -706.751
  H      703.787    -895.220    -706.548
  H      706.797    -893.410    -707.715
  H      705.584    -894.440    -705.092
  H      707.594    -895.630    -704.632
  H      707.981    -896.440    -707.334
  H      701.174    -890.680    -708.109
  H      706.039    -897.950    -707.052
  H      700.279    -892.040    -707.442
  H      707.094    -897.960    -705.646
  P      710.149    -895.160    -705.350
  C      711.366    -895.260    -707.624
  O      710.947    -896.000    -706.476
  O      709.992    -895.860    -704.036
  O      711.091    -893.850    -705.177
  H      711.671    -893.990    -704.403
  H      711.881    -895.911    -708.299
  H      712.021    -894.471    -707.320
  H      710.510    -894.844    -708.112

 6  7  8  9  10  11  12  13  14  15  16  26  30  31  32  33  35 0
 6-311+G(2d,p)
 ****
 37  38 0
 6-311+G(2d,p)
 ****
 1  2  3  4  5  17  18  19  20  21  22  23  24  25 0
 3-21G
 ****
 27  28  29  34  36  39  40  41  42  43  44  45  46 0
 3-21G
 ****


