%nproc=1
%NoSave
%Mem=1900MB
#P OB98/GEN NMR

erre ene a

0 1
  C       18.670      -5.137      55.417
  O       17.967      -4.333      54.492
  H       18.055      -5.258      56.312
  H       19.611      -4.661      55.701
  H       18.865      -6.126      54.992
  P       18.681      -3.945      53.112
  C       17.733      -3.901      50.711
  O       17.513      -3.567      52.078
  C       16.485      -3.581      49.882
  O       15.467      -4.553      50.226
  C       15.930      -2.179      50.171
  O       15.749      -1.395      48.994
  C       14.702      -2.458      51.029
  O       13.701      -1.465      50.967
  C       14.257      -3.846      50.555
  N       13.479      -4.588      51.545
  C       12.173      -4.166      51.776
  O       11.616      -3.237      51.197
  N       11.483      -4.876      52.725
  C       11.959      -5.928      53.448
  O       11.290      -6.528      54.280
  C       13.352      -6.311      53.175
  C       14.038      -5.633      52.252
  O       19.674      -4.931      52.598
  O       19.363      -2.528      53.414
  H       12.945      -1.770      51.508
  H       20.320      -2.651      53.557
  H       10.532      -4.587      52.892
  H       13.766      -7.135      53.738
  H       15.068      -5.891      52.024
  H       13.653      -3.766      49.652
  H       15.024      -2.524      52.076
  H       16.645      -1.590      50.757
  H       16.722      -3.713      48.821
  H       17.961      -4.970      50.658
  H       18.588      -3.333      50.328
  P       16.784      -0.305      48.460
  C       17.746       0.137      46.062
  O       16.632      -0.209      46.871
  O       18.170      -0.412      49.002
  O       16.161       1.087      48.986
  H       16.918       1.679      49.170
  H       17.450       0.150      45.034
  H       18.525      -0.584      46.200
  H       18.103       1.106      46.342

 6  7  8  9  10  11  12  13  14  15  16  26  31  32  33  34  35 0
 6-311+G(2d,p)
 ****
 36  37 0
 6-311+G(2d,p)
 ****
 1  2  3  4  5  17  18  19  20  21  22  23  24  25 0
 3-21G
 ****
 27  28  29  30  38  39  40  41  42  43  44  45 0
 3-21G
 ****


