%nproc=1
%NoSave
%Mem=1900MB
#P OB98/GEN NMR

erre ene a

0 1
  C      -33.798    -161.932    -199.709
  O      -32.998    -161.967    -198.548
  H      -33.798    -160.908    -200.099
  H      -34.828    -162.208    -199.473
  H      -33.395    -162.599    -200.476
  P      -32.854    -163.346    -197.738
  C      -33.877    -162.544    -195.523
  O      -34.071    -163.346    -196.679
  C      -35.138    -162.511    -194.658
  O      -35.730    -163.838    -194.614
  C      -34.884    -162.071    -193.208
  O      -35.855    -161.093    -192.824
  C      -35.096    -163.344    -192.404
  O      -35.453    -163.095    -191.048
  C      -36.157    -164.048    -193.257
  N      -36.279    -165.463    -192.920
  C      -37.508    -166.062    -193.211
  O      -38.416    -165.406    -193.725
  N      -37.701    -167.373    -192.858
  C      -36.765    -168.014    -192.231
  N      -37.036    -169.305    -191.886
  C      -35.466    -167.414    -191.880
  C      -35.288    -166.145    -192.254
  O      -31.503    -163.581    -197.146
  O      -33.290    -164.481    -198.776
  H      -35.765    -163.937    -190.647
  H      -32.902    -165.342    -198.491
  H      -34.721    -167.992    -191.352
  H      -34.363    -165.618    -192.041
  H      -37.140    -163.574    -193.128
  H      -34.168    -163.930    -192.406
  H      -33.888    -161.660    -193.052
  H      -35.879    -161.865    -195.147
  H      -37.945    -169.677    -192.140
  H      -33.605    -161.531    -195.840
  H      -36.396    -169.894    -191.376
  H      -33.055    -162.972    -194.938
  P      -35.383    -159.559    -192.885
  C      -34.155    -159.394    -190.602
  O      -34.041    -159.422    -192.018
  O      -36.488    -158.798    -192.012
  O      -35.307    -159.016    -194.273
  H      -37.048    -158.250    -192.595
  H      -33.182    -159.300    -190.168
  H      -34.611    -160.301    -190.263
  H      -34.758    -158.560    -190.309

 6  7  8  9  10  11  12  13  14  15  16  26  30  31  32  33  35 0
 6-311+G(2d,p)
 ****
 37  38 0
 6-311+G(2d,p)
 ****
 1  2  3  4  5  17  18  19  20  21  22  23  24  25 0
 3-21G
 ****
 27  28  29  34  36  39  40  41  42  43  44  45  46 0
 3-21G
 ****


