%nproc=1
%NoSave
%Mem=1900MB
#P OB98/GEN NMR

erre ene a

0 1
  C       50.543       1.424     -81.579
  O       51.115       2.621     -81.085
  P       50.730       3.149     -79.624
  C       49.682       5.291     -80.667
  O       50.580       4.742     -79.727
  C       50.276       6.537     -81.339
  O       49.370       6.948     -82.392
  C       50.426       7.747     -80.423
  O       51.346       8.661     -81.026
  C       49.034       8.335     -80.452
  O       49.014       9.701     -80.052
  C       48.587       8.065     -81.912
  N       47.148       7.750     -81.988
  C       46.294       8.792     -82.336
  O       46.696       9.913     -82.646
  N       44.955       8.529     -82.231
  C       44.415       7.363     -81.776
  O       43.254       7.248     -81.399
  C       45.351       6.233     -81.656
  C       46.660       6.481     -81.741
  O       52.089       2.947     -78.805
  O       49.585       2.446     -78.982
  H       48.070       9.941     -79.903
  H       52.063       2.106     -78.311
  H       44.341       9.327     -82.343
  H       44.944       5.254     -81.443
  H       47.378       5.676     -81.606
  H       48.777       8.931     -82.555
  H       48.395       7.778     -79.756
  H       50.746       7.504     -79.405
  H       51.237       6.278     -81.799
  H       48.740       5.534     -80.168
  H       49.442       4.552     -81.440
  P       52.418       9.382     -80.076
  C       51.725      11.855     -80.048
  O       52.572      10.881     -80.626
  O       53.696       8.645     -79.856
  O       51.607       9.589     -78.708
  H       52.232       9.742     -77.976
  H       52.228      12.825     -80.082
  H       51.489      11.614     -79.007
  H       50.799      11.914     -80.626
  H       50.915       1.231     -82.564
  H       49.478       1.525     -81.613
  H       50.804       0.611     -80.934

 3  4  5  6  7  8  9  10  11  12  13  23  28  29  30  31  32 0
 6-311+G(2d,p)
 ****
 33  34 0
 6-311+G(2d,p)
 ****
 1  2  14  15  16  17  18  19  20  21  22  24  25  26  27 0
 3-21G
 ****
 35  36  37  38  39  40  41  42  43  44  45 0
 3-21G
 ****


