%nproc=1
%NoSave
%Mem=1900MB
#P OB98/GEN NMR

erre ene a

0 1
  C     -763.762     -36.114     -89.364
  O     -763.897     -36.737     -90.626
  H     -764.629     -36.374     -88.749
  H     -763.727     -35.027     -89.478
  H     -762.856     -36.465     -88.866
  P     -762.771     -36.388     -91.715
  C     -762.119     -38.911     -91.843
  O     -761.706     -37.579     -91.551
  C     -760.897     -39.830     -91.879
  O     -760.018     -39.467     -92.967
  C     -760.037     -39.763     -90.625
  O     -760.573     -40.515     -89.550
  C     -758.750     -40.373     -91.146
  O     -758.900     -41.809     -91.253
  C     -758.656     -39.723     -92.545
  N     -757.877     -38.487     -92.550
  C     -756.761     -38.450     -93.401
  O     -756.470     -39.421     -94.095
  N     -755.991     -37.314     -93.422
  C     -756.296     -36.303     -92.676
  N     -755.484     -35.205     -92.730
  C     -757.463     -36.290     -91.776
  C     -758.202     -37.402     -91.766
  O     -761.995     -35.144     -91.067
  O     -763.253     -36.160     -93.112
  H     -759.272     -42.115     -90.406
  H     -761.195     -34.930     -91.611
  H     -757.681     -35.426     -91.165
  H     -759.074     -37.470     -91.126
  H     -758.216     -40.416     -93.272
  H     -757.885     -40.191     -90.499
  H     -759.837     -38.731     -90.325
  H     -761.252     -40.851     -92.067
  H     -754.656     -35.267     -93.306
  H     -762.619     -38.915     -92.813
  H     -755.544     -34.458     -92.052
  H     -762.811     -39.263     -91.080
  P     -760.174     -40.065     -88.057
  C     -762.282     -38.744     -87.301
  O     -760.940     -38.677     -87.769
  O     -758.650     -39.609     -88.209
  O     -760.346     -41.123     -87.011
  H     -758.123     -39.878     -87.436
  H     -762.659     -37.753     -87.155
  H     -762.310     -39.277     -86.373
  H     -762.886     -39.253     -88.023

 6  7  8  9  10  11  12  13  14  15  16  26  30  31  32  33  35 0
 6-311+G(2d,p)
 ****
 37  38 0
 6-311+G(2d,p)
 ****
 1  2  3  4  5  17  18  19  20  21  22  23  24  25 0
 3-21G
 ****
 27  28  29  34  36  39  40  41  42  43  44  45  46 0
 3-21G
 ****


