%nproc=1
%NoSave
%Mem=1900MB
#P OB98/GEN NMR

erre ene a

0 1
  C      235.124     384.185    -601.637
  O      234.743     383.318    -602.690
  P      233.227     383.265    -603.231
  C      233.181     380.682    -603.354
  O      233.124     381.902    -604.074
  C      233.906     379.613    -604.182
  O      233.224     379.478    -605.458
  C      235.379     379.926    -604.474
  O      236.087     378.677    -604.476
  C      235.322     380.518    -605.872
  O      236.576     380.427    -606.542
  C      234.206     379.688    -606.500
  N      233.610     380.331    -607.668
  C      234.231     380.137    -608.904
  O      235.258     379.468    -608.994
  N      233.669     380.713    -610.014
  C      232.635     381.484    -609.887
  N      232.083     381.977    -611.029
  C      232.012     381.799    -608.587
  C      232.537     381.174    -607.537
  O      232.783     384.485    -603.964
  O      232.364     382.926    -601.929
  H      236.804     379.484    -606.653
  H      232.120     383.725    -601.403
  H      231.165     382.471    -608.531
  H      232.123     381.331    -606.544
  H      234.582     378.682    -606.771
  H      235.048     381.573    -605.812
  H      235.828     380.595    -603.728
  H      233.814     378.649    -603.661
  H      232.421     381.603    -611.906
  H      232.158     380.345    -603.163
  H      231.114     382.307    -611.047
  H      233.681     380.835    -602.393
  P      237.376     378.536    -603.522
  C      239.149     378.716    -605.404
  O      238.573     377.922    -604.403
  O      236.955     377.283    -602.601
  O      237.702     379.707    -602.659
  H      237.428     377.337    -601.754
  H      239.939     378.145    -605.890
  H      239.582     379.620    -604.987
  H      238.398     378.980    -606.163
  H      236.168     384.063    -601.435
  H      234.560     383.949    -600.759
  H      234.932     385.198    -601.922

 3  4  5  6  7  8  9  10  11  12  13  23  27  28  29  30  32 0
 6-311+G(2d,p)
 ****
 34  35 0
 6-311+G(2d,p)
 ****
 1  2  14  15  16  17  18  19  20  21  22  24  25  26 0
 3-21G
 ****
 31  33  36  37  38  39  40  41  42  43  44  45  46 0
 3-21G
 ****


