%nproc=1
%NoSave
%Mem=1900MB
#P OB98/GEN NMR

erre ene a

0 1
  C      794.635    -897.530    -765.412
  O      794.325    -897.380    -764.027
  P      793.066    -898.180    -763.430
  C      791.463    -896.440    -764.470
  O      791.841    -897.160    -763.285
  C      790.217    -895.570    -764.192
  O      789.107    -896.430    -763.789
  C      790.377    -894.530    -763.045
  O      790.878    -893.250    -763.373
  C      788.935    -894.360    -762.617
  O      788.291    -893.370    -763.480
  C      788.307    -895.720    -762.818
  N      785.457    -899.120    -760.284
  C      785.313    -898.550    -761.491
  N      786.114    -897.640    -762.097
  C      787.181    -897.350    -761.312
  C      787.473    -897.870    -760.057
  C      786.533    -898.800    -759.539
  N      786.687    -899.370    -758.297
  N      788.641    -897.340    -759.584
  C      789.043    -896.520    -760.515
  N      788.198    -896.500    -761.603
  O      793.344    -899.030    -762.243
  O      792.622    -899.080    -764.686
  H      788.806    -892.560    -763.399
  H      792.308    -899.960    -764.351
  H      784.420    -898.850    -762.044
  H      789.942    -895.890    -760.464
  H      787.281    -895.650    -763.239
  H      788.855    -893.950    -761.599
  H      790.951    -894.970    -762.231
  H      789.930    -895.040    -765.101
  H      791.240    -897.140    -765.286
  H      785.970    -900.000    -757.953
  H      787.468    -899.100    -757.705
  H      792.323    -895.860    -764.773
  P      792.462    -892.910    -763.281
  C      791.984    -891.080    -761.486
  O      792.554    -891.410    -762.730
  O      793.237    -893.180    -764.540
  O      792.918    -893.800    -762.024
  H      792.562    -893.480    -761.161
  H      792.338    -890.080    -761.182
  H      792.272    -891.790    -760.707
  H      790.885    -891.050    -761.571
  H      795.493    -896.938    -765.652
  H      793.802    -897.206    -766.001
  H      794.842    -898.559    -765.622

 3  4  5  6  7  8  9  10  11  12  22  25  29  30  31  32 0
 6-311+G(2d,p)
 ****
 33  36  37 0
 6-311+G(2d,p)
 ****
 1  2  13  14  15  16  17  18  19  20  21  23  24  26 0
 3-21G
 ****
 27  28  34  35  38  39  40  41  42  43  44  45  46  47  48 0
 3-21G
 ****


