%nproc=1
%NoSave
%Mem=1900MB
#P OB98/GEN NMR

erre ene a

0 1
  C      420.089    -333.216    -930.927
  O      418.980    -332.343    -930.839
  H      419.720    -334.237    -931.052
  H      420.678    -333.162    -930.004
  H      420.716    -332.957    -931.786
  P      419.302    -330.766    -930.831
  C      418.087    -330.096    -933.063
  O      419.305    -330.317    -932.371
  C      418.351    -329.706    -934.514
  O      418.866    -328.348    -934.547
  C      419.372    -330.609    -935.222
  O      418.985    -330.746    -936.591
  C      420.660    -329.805    -935.142
  O      421.592    -330.186    -936.154
  C      420.127    -328.372    -935.252
  N      421.057    -327.381    -934.715
  C      422.261    -327.202    -935.409
  O      422.497    -327.871    -936.421
  N      423.181    -326.311    -934.931
  C      422.953    -325.694    -933.808
  N      423.916    -324.837    -933.369
  C      421.719    -325.877    -933.017
  C      420.822    -326.721    -933.525
  O      420.854    -330.753    -930.431
  O      418.425    -329.959    -929.933
  H      422.248    -329.464    -936.261
  H      421.380    -331.414    -930.906
  H      421.584    -325.351    -932.086
  H      419.888    -326.918    -933.019
  H      419.922    -328.110    -936.300
  H      421.140    -329.957    -934.169
  H      419.453    -331.593    -934.752
  H      417.396    -329.701    -935.057
  H      424.755    -324.753    -933.929
  H      417.509    -329.307    -932.573
  H      423.872    -324.348    -932.486
  H      417.500    -331.023    -933.016
  P      419.126    -332.172    -937.311
  C      416.772    -332.462    -938.354
  O      417.692    -332.888    -937.350
  O      420.253    -333.025    -936.835
  O      419.346    -331.765    -938.846
  H      420.028    -332.362    -939.218
  H      415.863    -333.019    -938.264
  H      417.198    -332.628    -939.321
  H      416.565    -331.420    -938.229

 6  7  8  9  10  11  12  13  14  15  16  26  30  31  32  33  35 0
 6-311+G(2d,p)
 ****
 37  38 0
 6-311+G(2d,p)
 ****
 1  2  3  4  5  17  18  19  20  21  22  23  24  25 0
 3-21G
 ****
 27  28  29  34  36  39  40  41  42  43  44  45  46 0
 3-21G
 ****


