%nproc=1
%NoSave
%Mem=1900MB
#P OB98/GEN NMR

erre ene a

0 1
  C      255.007     -67.982      83.432
  O      254.420     -67.048      84.316
  H      255.938     -67.559      83.045
  H      254.335     -68.187      82.593
  H      255.233     -68.910      83.964
  P      253.016     -67.465      84.970
  C      253.982     -68.896      86.884
  O      253.349     -67.672      86.529
  C      254.367     -68.889      88.364
  O      254.466     -70.262      88.821
  C      255.710     -68.209      88.640
  O      255.624     -67.481      89.864
  C      256.672     -69.372      88.804
  O      257.801     -69.033      89.604
  C      255.765     -70.441      89.411
  N      257.640     -74.671      91.560
  C      257.107     -73.548      92.089
  N      256.615     -72.471      91.440
  C      256.668     -72.655      90.108
  C      257.184     -73.741      89.426
  C      257.697     -74.786      90.213
  N      258.265     -75.922      89.683
  N      257.100     -73.539      88.062
  C      256.529     -72.356      87.925
  N      256.265     -71.777      89.136
  O      252.307     -68.601      84.313
  O      252.230     -66.072      84.969
  H      258.351     -68.394      89.105
  H      252.802     -65.339      85.265
  H      257.079     -73.505      93.175
  H      256.302     -71.874      86.980
  H      255.672     -70.345      90.499
  H      257.038     -69.688      87.819
  H      256.013     -67.540      87.834
  H      253.558     -68.422      88.936
  H      254.878     -69.047      86.274
  H      258.595     -76.631      90.319
  H      258.300     -76.036      88.680
  H      253.280     -69.710      86.678
  P      255.395     -65.896      89.797
  C      253.032     -65.613      88.799
  O      253.829     -65.598      89.979
  O      256.056     -65.189      88.663
  O      255.997     -65.402      91.200
  H      256.448     -64.546      91.067
  H      252.014     -65.402      89.053
  H      253.092     -66.578      88.340
  H      253.391     -64.871      88.117

 6  7  8  9  10  11  12  13  14  15  25  28  32  33  34  35 0
 6-311+G(2d,p)
 ****
 36  39  40 0
 6-311+G(2d,p)
 ****
 1  2  3  4  5  16  17  18  19  20  21  22  23  24 0
 3-21G
 ****
 26  27  29  30  31  37  38  41  42  43  44  45  46  47 0
 3-21G
 ****
 48 0
 3-21G
 ****


