%nproc=1
%NoSave
%Mem=1900MB
#P OB98/GEN NMR

erre ene a

0 1
  C      361.620      72.951    -154.606
  O      362.905      73.182    -155.145
  H      360.862      73.031    -155.390
  H      361.589      71.941    -154.189
  H      361.409      73.669    -153.809
  P      363.168      74.621    -155.804
  C      365.641      74.014    -155.286
  O      364.731      74.655    -156.169
  C      366.960      73.763    -156.005
  O      367.551      75.016    -156.418
  C      368.018      73.070    -155.153
  O      367.826      71.667    -155.096
  C      369.275      73.420    -155.930
  O      369.374      72.585    -157.098
  C      368.995      74.874    -156.336
  N      373.079      77.670    -155.039
  C      372.880      76.766    -156.023
  N      371.764      76.063    -156.298
  C      370.785      76.365    -155.431
  C      370.843      77.256    -154.373
  C      372.059      77.936    -154.192
  N      372.270      78.846    -153.179
  N      369.647      77.273    -153.683
  C      368.873      76.431    -154.335
  N      369.517      75.848    -155.394
  O      363.064      75.628    -154.562
  O      362.256      74.998    -156.923
  H      369.181      71.674    -156.806
  H      362.885      76.533    -154.880
  H      373.730      76.587    -156.674
  H      367.843      76.209    -154.083
  H      369.406      75.121    -157.322
  H      370.189      73.275    -155.353
  H      368.080      73.510    -154.150
  H      366.748      73.181    -156.912
  H      365.216      73.059    -154.963
  H      373.224      79.134    -153.025
  H      371.568      78.936    -152.460
  H      365.799      74.651    -154.410
  P      368.096      70.943    -153.688
  C      366.076      69.336    -153.997
  O      367.485      69.470    -153.830
  O      367.081      71.679    -152.697
  O      369.511      71.017    -153.212
  H      367.407      71.647    -151.779
  H      365.823      68.299    -154.077
  H      365.772      69.847    -154.887
  H      365.575      69.761    -153.153

 6  7  8  9  10  11  12  13  14  15  25  28  32  33  34  35 0
 6-311+G(2d,p)
 ****
 36  39  40 0
 6-311+G(2d,p)
 ****
 1  2  3  4  5  16  17  18  19  20  21  22  23  24 0
 3-21G
 ****
 26  27  29  30  31  37  38  41  42  43  44  45  46  47 0
 3-21G
 ****
 48 0
 3-21G
 ****


