%nproc=1
%NoSave
%Mem=1900MB
#P OB98/GEN NMR

erre ene a

0 1
  C       45.628    -119.565     -79.497
  O       45.886    -118.354     -78.819
  H       45.740    -120.391     -78.789
  H       46.345    -119.705     -80.309
  H       44.610    -119.580     -79.893
  P       45.663    -116.970     -79.596
  C       46.256    -116.175     -81.973
  O       46.631    -116.993     -80.873
  C       47.239    -116.369     -83.125
  O       47.004    -117.637     -83.776
  C       47.124    -115.313     -84.219
  O       47.709    -114.094     -83.805
  C       47.836    -116.019     -85.362
  O       49.261    -115.931     -85.216
  C       47.360    -117.478     -85.168
  N       46.241    -117.833     -86.043
  C       46.577    -118.306     -87.307
  O       47.736    -118.427     -87.695
  N       45.523    -118.595     -88.134
  C       44.206    -118.373     -87.853
  O       43.317    -118.439     -88.696
  C       43.909    -117.944     -86.478
  C       44.924    -117.682     -85.654
  O       45.747    -115.737     -78.760
  O       44.209    -117.137     -80.249
  H       43.556    -116.652     -79.709
  H       49.647    -116.368     -86.000
  H       45.756    -118.895     -89.069
  H       42.871    -117.819     -86.197
  H       44.730    -117.335     -84.645
  H       48.182    -118.178     -85.367
  H       47.586    -115.591     -86.334
  H       46.073    -115.168     -84.492
  H       48.254    -116.387     -82.707
  H       46.274    -115.128     -81.651
  H       45.238    -116.434     -82.282
  P       47.841    -112.857     -84.810
  C       49.076    -112.330     -86.992
  O       48.993    -113.198     -85.871
  O       47.978    -111.522     -84.155
  O       46.507    -112.923     -85.695
  H       46.060    -112.055     -85.664
  H       49.873    -112.648     -87.631
  H       49.264    -111.331     -86.657
  H       48.153    -112.357     -87.533

 6  7  8  9  10  11  12  13  14  15  16  27  31  32  33  34  35 0
 6-311+G(2d,p)
 ****
 36  37 0
 6-311+G(2d,p)
 ****
 1  2  3  4  5  17  18  19  20  21  22  23  24  25 0
 3-21G
 ****
 26  28  29  30  38  39  40  41  42  43  44  45 0
 3-21G
 ****


