%nproc=1
%NoSave
%Mem=1900MB
#P OB98/GEN NMR

erre ene a

0 1
  C      678.196     164.935     107.049
  O      677.264     164.107     106.388
  H      678.207     165.914     106.559
  H      679.199     164.506     106.994
  H      677.907     165.077     108.095
  P      677.087     162.595     106.893
  C      679.182     161.513     105.839
  O      677.767     161.667     105.774
  C      679.708     160.934     104.526
  O      681.126     160.694     104.613
  C      679.069     159.609     104.117
  O      677.812     159.825     103.494
  C      680.118     159.086     103.150
  O      679.999     159.766     101.890
  C      681.426     159.495     103.853
  N      683.854     155.048     104.235
  C      683.345     155.684     103.118
  N      683.476     155.034     101.940
  N      682.752     156.854     103.159
  C      682.633     157.352     104.406
  C      683.079     156.806     105.590
  C      683.793     155.548     105.524
  O      684.285     154.956     106.488
  N      682.697     157.560     106.664
  C      682.062     158.592     106.134
  N      681.985     158.509     104.763
  O      675.693     162.186     107.255
  O      678.094     162.475     108.131
  H      679.087     159.638     101.579
  H      677.642     162.683     108.972
  H      684.294     154.143     104.143
  H      681.642     159.413     106.694
  H      682.220     159.745     103.134
  H      680.012     158.011     102.953
  H      683.781     154.079     101.871
  H      678.989     158.926     104.971
  H      683.057     155.466     101.121
  H      679.563     161.696     103.738
  H      679.402     160.836     106.666
  H      679.662     162.479     106.032
  P      676.518     158.950     103.879
  C      676.873     157.171     102.030
  O      676.070     158.232     102.508
  O      675.443     159.696     104.575
  O      677.111     157.716     104.710
  H      677.235     157.929     105.670
  H      676.459     156.793     101.119
  H      676.903     156.389     102.760
  H      677.865     157.528     101.849

 6  7  8  9  10  11  12  13  14  15  26  29  33  34 0
 6-311+G(2d,p)
 ****
 36  38  39  40  41 0
 6-311+G(2d,p)
 ****
 1  2  3  4  5  16  17  18  19  20  21  22  23  24  25 0
 3-21G
 ****
 27  28  30  31  32  35  37  42  43  44  45  46  47 0
 3-21G
 ****
 48  49 0
 3-21G
 ****


