%nproc=1
%NoSave
%Mem=1900MB
#P OB98/GEN NMR

erre ene a

0 1
  C      268.316     497.257      12.519
  O      268.163     498.400      11.703
  H      267.685     496.458      12.118
  H      267.997     497.474      13.542
  H      269.356     496.916      12.519
  P      269.080     499.685      11.988
  C      267.399     500.606      13.709
  O      268.734     500.182      13.473
  C      267.393     501.862      14.582
  O      266.037     502.276      14.864
  C      268.063     501.672      15.939
  O      269.472     501.660      15.810
  C      267.499     502.861      16.695
  O      268.191     504.073      16.358
  C      266.043     502.903      16.166
  N      265.088     502.253      17.077
  C      264.721     502.985      18.205
  O      265.161     504.104      18.450
  N      263.859     502.353      19.065
  C      263.419     501.063      18.952
  O      262.835     500.466      19.853
  C      263.780     500.372      17.709
  C      264.597     500.979      16.846
  O      269.053     500.749      10.941
  O      270.552     499.065      12.158
  H      271.053     499.201      11.328
  H      267.602     504.809      16.610
  H      263.627     502.855      19.907
  H      263.397     499.368      17.550
  H      264.902     500.476      15.933
  H      265.719     503.940      16.019
  H      267.574     502.740      17.780
  H      267.702     500.747      16.410
  H      267.883     502.671      14.015
  H      266.862     499.799      14.230
  H      266.906     500.798      12.749
  P      270.390     500.888      16.872
  C      270.879     502.988      18.263
  O      270.315     501.685      18.265
  O      271.783     500.589      16.408
  O      269.594     499.533      17.185
  H      270.185     498.774      17.053
  H      270.775     503.423      19.235
  H      270.371     503.595      17.544
  H      271.917     502.927      18.009

 6  7  8  9  10  11  12  13  14  15  16  27  31  32  33  34  35 0
 6-311+G(2d,p)
 ****
 36  37 0
 6-311+G(2d,p)
 ****
 1  2  3  4  5  17  18  19  20  21  22  23  24  25 0
 3-21G
 ****
 26  28  29  30  38  39  40  41  42  43  44  45 0
 3-21G
 ****


