%nproc=1
%NoSave
%Mem=1900MB
#P OB98/GEN NMR

erre ene a

0 1
  C      -33.072     477.151     251.843
  O      -32.094     476.165     252.122
  H      -32.566     478.111     251.693
  H      -33.766     477.252     252.682
  H      -33.621     476.897     250.932
  P      -32.590     474.664     252.390
  C      -30.790     473.640     250.844
  O      -32.180     473.828     251.083
  C      -30.583     472.798     249.588
  O      -31.032     473.519     248.422
  C      -29.128     472.416     249.332
  O      -28.758     471.302     250.131
  C      -29.186     472.098     247.846
  O      -29.784     470.803     247.647
  C      -30.126     473.203     247.328
  N      -26.080     475.146     244.966
  C      -26.397     473.828     245.246
  N      -25.482     472.903     244.882
  N      -27.496     473.459     245.852
  C      -28.284     474.497     246.215
  C      -28.070     475.842     246.004
  C      -26.876     476.238     245.293
  O      -26.565     477.392     245.004
  N      -29.058     476.605     246.580
  C      -29.886     475.721     247.100
  N      -29.454     474.427     246.918
  O      -34.027     474.500     252.787
  O      -31.586     474.118     253.510
  H      -30.586     470.779     248.203
  H      -31.945     474.259     254.405
  H      -25.206     475.369     244.514
  H      -30.808     475.960     247.613
  H      -30.734     472.865     246.479
  H      -28.200     472.076     247.371
  H      -24.520     473.152     244.687
  H      -28.453     473.267     249.478
  H      -25.671     471.940     245.126
  H      -31.214     471.903     249.676
  H      -30.369     473.133     251.720
  H      -30.291     474.610     250.727
  P      -28.081     471.504     251.577
  C      -29.426     469.668     252.802
  O      -29.214     471.065     252.625
  O      -27.511     472.860     251.814
  O      -27.020     470.319     251.691
  H      -26.128     470.551     251.331
  H      -30.202     469.513     253.522
  H      -28.522     469.211     253.148
  H      -29.713     469.230     251.869

 6  7  8  9  10  11  12  13  14  15  26  29  33  34 0
 6-311+G(2d,p)
 ****
 36  38  39  40  41 0
 6-311+G(2d,p)
 ****
 1  2  3  4  5  16  17  18  19  20  21  22  23  24  25 0
 3-21G
 ****
 27  28  30  31  32  35  37  42  43  44  45  46  47 0
 3-21G
 ****
 48  49 0
 3-21G
 ****


