%nproc=1
%NoSave
%Mem=1900MB
#P OB98/GEN NMR

erre ene a

0 1
  C       26.611    -595.084    -213.541
  O       26.212    -593.889    -214.180
  H       25.799    -595.812    -213.615
  H       26.810    -594.891    -212.482
  H       27.503    -595.506    -214.014
  P       27.353    -592.793    -214.462
  C       28.632    -591.030    -213.052
  O       27.563    -591.966    -213.096
  C       29.115    -590.852    -211.613
  O       28.066    -590.210    -210.843
  C       29.469    -592.169    -210.901
  O       30.628    -591.965    -210.089
  C       28.260    -592.441    -210.029
  O       28.573    -593.255    -208.900
  C       27.823    -591.019    -209.673
  N       24.511    -588.888    -206.518
  C       25.856    -588.640    -206.708
  N       26.402    -587.681    -205.929
  N       26.601    -589.274    -207.573
  C       25.906    -590.183    -208.311
  C       24.573    -590.532    -208.216
  C       23.773    -589.835    -207.231
  O       22.586    -590.030    -207.003
  N       24.264    -591.520    -209.117
  C       25.397    -591.775    -209.741
  N       26.423    -590.975    -209.294
  O       26.623    -591.750    -215.434
  O       28.610    -593.323    -215.073
  H       27.855    -593.132    -208.244
  H       27.057    -591.750    -216.305
  H       23.981    -588.383    -205.831
  H       25.531    -592.518    -210.521
  H       28.398    -590.608    -208.840
  H       27.486    -592.952    -210.612
  H       25.882    -587.117    -205.270
  H       29.664    -592.984    -211.599
  H       27.386    -587.449    -206.066
  H       29.971    -590.172    -211.618
  H       28.276    -590.063    -213.440
  H       29.450    -591.388    -213.683
  P       31.893    -592.909    -210.363
  C       32.719    -595.253    -209.624
  O       31.702    -594.272    -209.527
  O       33.082    -592.163    -209.586
  O       32.221    -593.085    -211.809
  H       33.694    -591.752    -210.229
  H       32.459    -596.097    -209.020
  H       33.645    -594.841    -209.281
  H       32.821    -595.561    -210.644

 6  7  8  9  10  11  12  13  14  15  26  29  33  34 0
 6-311+G(2d,p)
 ****
 36  38  39  40  41 0
 6-311+G(2d,p)
 ****
 1  2  3  4  5  16  17  18  19  20  21  22  23  24  25 0
 3-21G
 ****
 27  28  30  31  32  35  37  42  43  44  45  46  47 0
 3-21G
 ****
 48  49 0
 3-21G
 ****


