%nproc=1
%NoSave
%Mem=1900MB
#P OB98/GEN NMR

erre ene a

0 1
  C     -840.035     285.272    -898.420
  O     -841.452     285.215    -898.660
  P     -842.308     286.555    -898.850
  C     -843.710     285.798    -896.810
  O     -842.963     286.858    -897.430
  C     -844.308     286.253    -895.500
  O     -843.236     286.554    -894.570
  C     -845.154     287.546    -895.560
  O     -846.506     287.355    -895.970
  C     -845.118     287.985    -894.120
  O     -846.073     287.188    -893.350
  C     -843.696     287.630    -893.680
  N     -842.496     292.274    -891.870
  C     -843.453     291.368    -891.520
  N     -843.731     290.159    -892.060
  C     -842.845     289.889    -893.030
  C     -841.810     290.676    -893.510
  C     -841.654     291.952    -892.890
  N     -840.659     292.852    -893.260
  N     -841.151     290.099    -894.560
  C     -841.743     288.941    -894.690
  N     -842.761     288.770    -893.790
  O     -843.284     286.503    -900.000
  O     -841.217     287.713    -899.020
  H     -845.842     286.253    -893.520
  H     -841.627     288.512    -899.420
  H     -844.092     291.668    -890.700
  H     -841.469     288.178    -895.420
  H     -843.630     287.239    -892.670
  H     -845.390     289.043    -893.980
  H     -844.643     288.315    -896.180
  H     -844.920     285.431    -895.090
  H     -843.009     284.961    -896.620
  H     -840.539     293.663    -892.630
  H     -839.943     292.544    -893.870
  H     -844.477     285.439    -897.510
  P     -847.380     288.665    -896.300
  C     -849.234     288.613    -894.440
  O     -847.997     289.109    -894.900
  O     -848.327     288.514    -897.410
  O     -846.245     289.788    -896.550
  H     -845.694     290.029    -895.800
  H     -849.425     288.908    -893.420
  H     -849.264     287.516    -894.510
  H     -850.065     289.026    -895.070
  H     -839.650     284.279    -898.322
  H     -839.848     285.818    -897.519
  H     -839.554     285.762    -899.241

 3  4  5  6  7  8  9  10  11  12  22  25  29  30  31  32 0
 6-311+G(2d,p)
 ****
 33  36  37 0
 6-311+G(2d,p)
 ****
 1  2  13  14  15  16  17  18  19  20  21  23  24  26 0
 3-21G
 ****
 27  28  34  35  38  39  40  41  42  43  44  45  46  47  48 0
 3-21G
 ****


