%nproc=1
%NoSave
%Mem=1900MB
#P OB98/GEN NMR

erre ene a

0 1
  C      644.638     449.116     381.172
  O      644.934     450.510     381.060
  P      644.284     451.348     379.858
  C      646.175     452.976     379.195
  O      644.929     452.824     379.870
  C      646.619     454.439     379.205
  O      645.672     455.279     378.523
  C      646.739     455.022     380.604
  O      647.909     454.536     381.249
  C      646.733     456.513     380.316
  O      648.044     456.969     379.920
  C      645.768     456.602     379.117
  N      644.450     457.112     379.485
  C      644.348     458.510     379.602
  O      645.345     459.220     379.443
  N      643.126     459.056     379.918
  C      642.102     458.276     380.092
  N      640.920     458.878     380.404
  C      642.174     456.807     379.987
  C      643.371     456.297     379.683
  O      642.794     451.303     379.769
  O      644.963     450.687     378.556
  H      648.010     457.952     379.953
  H      644.339     450.762     377.812
  H      641.287     456.207     380.141
  H      643.500     455.223     379.591
  H      646.180     457.260     378.336
  H      646.443     457.098     381.184
  H      645.849     454.760     381.195
  H      647.581     454.508     378.688
  H      640.900     459.887     380.474
  H      646.079     452.626     378.171
  H      640.053     458.363     380.508
  H      646.919     452.333     379.684
  P      647.879     454.420     382.852
  C      650.288     455.182     383.396
  O      649.376     454.113     383.353
  O      647.118     453.018     383.089
  O      647.173     455.539     383.556
  H      646.587     453.074     383.900
  H      651.126     454.899     384.038
  H      649.834     456.089     383.801
  H      650.668     455.380     382.395
  H      645.148     448.710     382.021
  H      644.962     448.610     380.286
  H      643.583     448.984     381.293

 3  4  5  6  7  8  9  10  11  12  13  23  27  28  29  30  32 0
 6-311+G(2d,p)
 ****
 34  35 0
 6-311+G(2d,p)
 ****
 1  2  14  15  16  17  18  19  20  21  22  24  25  26 0
 3-21G
 ****
 31  33  36  37  38  39  40  41  42  43  44  45  46 0
 3-21G
 ****


