%nproc=1
%NoSave
%Mem=1900MB
#P OB98/GEN NMR

erre ene a

0 1
  C     -350.420     282.765    -183.844
  O     -349.569     282.796    -182.717
  P     -349.791     281.816    -181.465
  C     -350.019     283.732    -179.766
  O     -349.245     282.615    -180.186
  C     -349.450     284.350    -178.490
  O     -349.519     283.382    -177.405
  C     -347.994     284.826    -178.598
  O     -347.878     285.978    -177.760
  C     -347.232     283.658    -177.997
  O     -345.918     284.020    -177.584
  C     -348.184     283.232    -176.875
  N     -347.922     281.871    -176.416
  C     -347.283     281.733    -175.181
  O     -346.904     282.734    -174.569
  N     -347.041     280.478    -174.697
  C     -347.325     279.444    -175.428
  N     -347.068     278.219    -174.900
  C     -347.880     279.546    -176.792
  C     -348.167     280.773    -177.211
  O     -349.238     280.443    -181.634
  O     -351.374     281.839    -181.243
  H     -345.407     284.304    -178.374
  H     -351.824     281.274    -181.920
  H     -348.045     278.658    -177.386
  H     -348.579     280.948    -178.200
  H     -348.099     283.914    -176.012
  H     -347.135     282.858    -178.737
  H     -347.683     285.052    -179.615
  H     -350.099     285.198    -178.204
  H     -346.701     278.190    -173.953
  H     -351.036     283.386    -179.573
  H     -347.323     277.352    -175.348
  H     -350.065     284.478    -180.571
  P     -346.684     287.034    -177.956
  C     -345.195     286.274    -176.019
  O     -346.047     287.296    -176.511
  O     -347.051     288.275    -178.710
  O     -345.544     286.205    -178.715
  H     -344.890     286.818    -179.094
  H     -344.603     286.669    -175.183
  H     -344.503     285.928    -176.794
  H     -345.795     285.436    -175.665
  H     -350.095     283.495    -184.556
  H     -351.422     282.984    -183.540
  H     -350.387     281.793    -184.289

 3  4  5  6  7  8  9  10  11  12  13  23  27  28  29  30  32 0
 6-311+G(2d,p)
 ****
 34  35 0
 6-311+G(2d,p)
 ****
 1  2  14  15  16  17  18  19  20  21  22  24  25  26 0
 3-21G
 ****
 31  33  36  37  38  39  40  41  42  43  44  45  46 0
 3-21G
 ****


