%nproc=1
%NoSave
%Mem=1900MB
#P OB98/GEN NMR

erre ene a

0 1
  C     -568.800    -898.860    1995.003
  O     -568.239    -897.860    1994.155
  H     -568.485    -898.670    1996.028
  H     -568.427    -899.840    1994.705
  H     -569.894    -898.850    1994.948
  P     -568.649    -897.920    1992.603
  C     -569.137    -895.410    1992.161
  O     -569.674    -896.710    1992.376
  C     -569.286    -894.530    1993.401
  O     -568.510    -895.130    1994.497
  C     -568.807    -893.080    1993.238
  O     -569.693    -892.240    1994.007
  C     -567.446    -893.100    1993.882
  O     -567.014    -891.790    1994.293
  C     -567.685    -894.050    1995.051
  N     -563.820    -892.860    1998.016
  C     -564.933    -892.140    1997.682
  N     -565.048    -890.910    1998.216
  N     -565.892    -892.580    1996.884
  C     -565.655    -893.860    1996.448
  C     -564.605    -894.680    1996.705
  C     -563.519    -894.140    1997.559
  O     -562.511    -894.740    1997.889
  N     -564.711    -895.860    1996.065
  C     -565.869    -895.780    1995.413
  N     -566.464    -894.560    1995.610
  O     -569.581    -899.220    1992.536
  O     -567.518    -897.990    1991.650
  H     -566.241    -891.890    1994.873
  H     -569.057    -900.000    1992.283
  H     -563.117    -892.480    1998.634
  H     -566.286    -896.540    1994.782
  H     -568.264    -893.590    1995.865
  H     -566.691    -893.490    1993.183
  H     -564.402    -890.520    1998.862
  H     -568.801    -892.720    1992.203
  H     -565.883    -890.380    1998.014
  H     -570.356    -894.570    1993.725
  H     -569.664    -894.930    1991.316
  H     -568.057    -895.490    1991.882
  P     -571.245    -892.230    1993.656
  C     -572.431    -892.850    1995.918
  O     -571.994    -893.270    1994.628
  O     -571.296    -892.980    1992.245
  O     -571.856    -890.870    1993.607
  H     -572.065    -892.650    1991.704
  H     -572.904    -893.669    1996.418
  H     -573.128    -892.045    1995.814
  H     -571.589    -892.521    1996.490

 6  7  8  9  10  11  12  13  14  15  26  29  33  34 0
 6-311+G(2d,p)
 ****
 36  38  39  40  41 0
 6-311+G(2d,p)
 ****
 1  2  3  4  5  16  17  18  19  20  21  22  23  24  25 0
 3-21G
 ****
 27  28  30  31  32  35  37  42  43  44  45  46  47 0
 3-21G
 ****
 48  49 0
 3-21G
 ****


