%nproc=1
%NoSave
%Mem=1900MB
#P OB98/GEN NMR

erre ene a

0 1
  C      -24.384    -351.876    -100.186
  O      -23.273    -352.742    -100.309
  P      -23.348    -354.001    -101.293
  C      -21.683    -355.746    -102.179
  O      -21.847    -354.434    -101.650
  C      -20.219    -356.178    -102.088
  O      -19.386    -355.288    -102.862
  C      -19.650    -356.145    -100.675
  O      -20.099    -357.258     -99.925
  C      -18.155    -356.128    -100.961
  O      -17.676    -357.455    -101.225
  C      -18.085    -355.269    -102.231
  N      -14.641    -352.322     -99.893
  C      -14.864    -353.653     -99.850
  N      -15.831    -354.361    -100.474
  C      -16.627    -353.545    -101.183
  C      -16.548    -352.165    -101.292
  C      -15.479    -351.545    -100.622
  N      -15.204    -350.198    -100.707
  N      -17.573    -351.684    -102.086
  C      -18.261    -352.751    -102.437
  N      -17.690    -353.899    -101.970
  O      -24.256    -353.840    -102.468
  O      -23.852    -355.191    -100.348
  H      -17.771    -357.971    -100.398
  H      -24.701    -355.534    -100.686
  H      -14.171    -354.226     -99.242
  H      -19.159    -352.742    -103.040
  H      -17.376    -355.678    -102.961
  H      -17.571    -355.733    -100.125
  H      -19.933    -355.207    -100.180
  H      -20.133    -357.184    -102.518
  H      -22.003    -355.738    -103.224
  H      -14.334    -349.884    -100.308
  H      -15.618    -349.669    -101.472
  H      -22.317    -356.443    -101.620
  P      -19.678    -357.405     -98.386
  C      -20.133    -359.093     -96.513
  O      -20.537    -358.615     -97.780
  O      -19.698    -356.142     -97.586
  O      -18.202    -358.020     -98.460
  H      -17.677    -357.699     -97.704
  H      -19.252    -359.733     -96.626
  H      -20.947    -359.682     -96.086
  H      -19.899    -358.266     -95.837
  H      -24.154    -351.097     -99.490
  H      -25.230    -352.429     -99.835
  H      -24.609    -351.447    -101.140

 3  4  5  6  7  8  9  10  11  12  22  25  29  30  31  32 0
 6-311+G(2d,p)
 ****
 33  36  37 0
 6-311+G(2d,p)
 ****
 1  2  13  14  15  16  17  18  19  20  21  23  24  26 0
 3-21G
 ****
 27  28  34  35  38  39  40  41  42  43  44  45  46  47  48 0
 3-21G
 ****


