%nproc=1
%NoSave
%Mem=1900MB
#P OB98/GEN NMR

erre ene a

0 1
  C      301.506    -377.719     316.316
  O      302.057    -379.015     316.574
  P      303.588    -379.236     316.185
  C      305.199    -381.271     315.968
  O      303.992    -380.757     316.509
  C      305.455    -382.689     316.504
  O      305.924    -382.660     317.878
  C      304.210    -383.568     316.518
  O      303.883    -384.003     315.214
  C      304.651    -384.667     317.462
  O      305.489    -385.620     316.788
  C      305.480    -383.888     318.511
  N      305.778    -383.547     323.617
  C      306.675    -383.894     322.668
  N      306.530    -383.968     321.332
  C      305.270    -383.621     320.978
  C      304.240    -383.245     321.828
  C      304.521    -383.224     323.203
  N      303.594    -382.884     324.151
  N      303.097    -382.961     321.099
  C      303.436    -383.186     319.841
  N      304.744    -383.573     319.720
  O      304.381    -378.394     317.293
  O      303.931    -378.784     314.787
  H      305.794    -386.270     317.472
  H      304.760    -377.585     316.890
  H      307.672    -384.153     323.040
  H      302.773    -383.091     318.987
  H      306.387    -384.435     318.801
  H      303.809    -385.229     317.905
  H      303.356    -383.014     316.946
  H      306.234    -383.149     315.887
  H      306.038    -380.621     316.235
  H      303.850    -382.974     325.132
  H      302.637    -382.719     323.867
  H      305.114    -381.269     314.877
  P      302.523    -383.465     314.560
  C      301.696    -383.503     312.117
  O      302.502    -384.139     313.099
  O      302.901    -381.938     314.229
  O      301.296    -383.667     315.386
  H      303.780    -381.876     313.804
  H      301.792    -384.056     311.174
  H      302.021    -382.472     311.977
  H      300.639    -383.535     312.424
  H      300.480    -377.701     316.619
  H      301.573    -377.505     315.270
  H      302.054    -376.983     316.866

 3  4  5  6  7  8  9  10  11  12  22  25  29  30  31  32 0
 6-311+G(2d,p)
 ****
 33  36  37 0
 6-311+G(2d,p)
 ****
 1  2  13  14  15  16  17  18  19  20  21  23  24  26 0
 3-21G
 ****
 27  28  34  35  38  39  40  41  42  43  44  45  46  47  48 0
 3-21G
 ****


