%nproc=1
%NoSave
%Mem=1900MB
#P OB98/GEN NMR

erre ene a

0 1
  C       86.521    -121.140     375.247
  O       87.601    -120.356     375.759
  P       88.501    -121.025     376.909
  C       90.652    -121.399     375.508
  O       90.046    -120.716     376.597
  C       92.167    -121.160     375.458
  O       92.491    -120.081     374.545
  C       92.774    -120.811     376.815
  O       94.093    -121.361     376.854
  C       92.885    -119.294     376.758
  O       93.844    -118.809     377.695
  C       93.253    -119.095     375.275
  N       92.988    -117.736     374.799
  C       93.962    -116.775     375.050
  O       94.963    -117.063     375.715
  N       93.769    -115.495     374.587
  C       92.673    -115.195     373.971
  N       92.533    -113.909     373.535
  C       91.584    -116.167     373.733
  C       91.813    -117.404     374.167
  O       88.361    -122.596     376.619
  O       88.053    -120.684     378.294
  H       93.868    -117.829     377.622
  H       88.129    -123.064     377.443
  H       90.677    -115.867     373.229
  H       91.077    -118.190     374.033
  H       94.315    -119.304     375.110
  H       91.918    -118.835     376.983
  H       92.195    -121.177     377.668
  H       92.640    -122.072     375.066
  H       93.300    -113.274     373.709
  H       90.204    -121.070     374.568
  H       91.722    -113.570     373.048
  H       90.424    -122.469     375.592
  P       94.487    -122.313     378.082
  C       93.601    -124.413     376.898
  O       94.744    -123.753     377.419
  O       93.058    -122.532     378.785
  O       95.509    -121.825     379.057
  H       93.178    -123.046     379.602
  H       93.929    -125.315     376.372
  H       93.070    -123.765     376.194
  H       92.938    -124.709     377.711
  H       86.004    -120.585     374.493
  H       85.845    -121.378     376.042
  H       86.906    -122.044     374.824

 3  4  5  6  7  8  9  10  11  12  13  21  23  27  28  29  30  32 0
 6-311+G(2d,p)
 ****
 34  35 0
 6-311+G(2d,p)
 ****
 1  2  14  15  16  17  18  19  20  22  24  25  26 0
 3-21G
 ****
 31  33  36  37  38  39  40  41  42  43  44  45  46 0
 3-21G
 ****


