%nproc=1
%NoSave
%Mem=1900MB
#P OB98/GEN NMR

erre ene a

0 1
  C      330.402     201.494      52.315
  O      331.047     201.292      53.554
  H      331.137     201.389      51.514
  H      329.983     202.504      52.272
  H      329.609     200.756      52.166
  P      330.125     201.245      54.867
  C      332.167     199.946      55.814
  O      331.086     200.827      56.086
  C      333.246     200.082      56.888
  O      333.986     201.308      56.654
  C      332.692     200.130      58.314
  O      333.579     199.407      59.173
  C      332.738     201.605      58.668
  O      332.813     201.832      60.075
  C      333.963     202.076      57.873
  N      333.909     203.512      57.608
  C      335.116     204.210      57.682
  O      336.159     203.617      57.969
  N      335.112     205.567      57.489
  C      333.986     206.187      57.324
  N      334.044     207.538      57.166
  C      332.678     205.502      57.306
  C      332.713     204.175      57.446
  O      329.229     199.938      54.644
  O      329.302     202.464      55.116
  H      333.663     201.464      60.402
  H      328.348     200.040      55.050
  H      331.767     206.065      57.190
  H      331.806     203.590      57.451
  H      334.887     201.855      58.422
  H      331.832     202.099      58.296
  H      331.683     199.716      58.399
  H      333.956     199.253      56.773
  H      334.958     207.976      57.203
  H      332.599     200.204      54.840
  H      333.229     208.129      57.077
  H      331.794     198.919      55.772
  P      332.982     198.099      59.888
  C      335.348     197.043      59.684
  O      334.205     197.264      60.500
  O      332.484     197.204      58.660
  O      331.873     198.392      60.843
  H      331.511     197.191      58.628
  H      336.072     196.475      60.230
  H      335.772     197.984      59.402
  H      335.060     196.504      58.806

 6  7  8  9  10  11  12  13  14  15  16  26  30  31  32  33  35 0
 6-311+G(2d,p)
 ****
 37  38 0
 6-311+G(2d,p)
 ****
 1  2  3  4  5  17  18  19  20  21  22  23  24  25 0
 3-21G
 ****
 27  28  29  34  36  39  40  41  42  43  44  45  46 0
 3-21G
 ****


