%nproc=1
%NoSave
%Mem=1900MB
#P OB98/GEN NMR

erre ene a

0 1
  C       49.802     112.315     -25.623
  O       50.285     111.370     -24.689
  H       49.408     111.779     -26.491
  H       50.618     112.965     -25.951
  H       49.000     112.914     -25.181
  P       50.747     111.940     -23.260
  C       49.441     113.124     -21.314
  O       49.470     112.707     -22.667
  C       48.002     113.381     -20.860
  O       47.423     114.402     -21.712
  C       47.104     112.146     -20.934
  O       46.182     112.191     -19.843
  C       46.348     112.341     -22.238
  O       45.120     111.618     -22.261
  C       46.207     113.871     -22.277
  N       45.976     114.375     -23.629
  C       44.743     114.068     -24.211
  O       43.918     113.391     -23.597
  N       44.488     114.495     -25.489
  C       45.409     115.118     -26.155
  N       45.103     115.493     -27.426
  C       46.740     115.425     -25.597
  C       46.950     115.037     -24.340
  O       51.738     113.122     -23.684
  O       51.354     110.920     -22.356
  H       45.298     110.692     -21.988
  H       51.395     113.674     -24.406
  H       47.479     115.938     -26.195
  H       47.896     115.229     -23.847
  H       45.374     114.196     -21.641
  H       46.957     111.994     -23.081
  H       47.666     111.211     -20.905
  H       48.026     113.791     -19.844
  H       44.187     115.242     -27.777
  H       50.031     114.036     -21.184
  H       45.759     115.933     -28.053
  H       49.895     112.335     -20.707
  P       46.561     111.480     -18.461
  C       48.968     111.638     -17.528
  O       47.730     112.307     -17.742
  O       46.771     110.006     -18.527
  O       45.289     111.816     -17.535
  H       45.080     111.015     -17.015
  H       49.653     112.302     -17.043
  H       49.375     111.331     -18.469
  H       48.807     110.779     -16.911

 6  7  8  9  10  11  12  13  14  15  16  26  30  31  32  33  35 0
 6-311+G(2d,p)
 ****
 37  38 0
 6-311+G(2d,p)
 ****
 1  2  3  4  5  17  18  19  20  21  22  23  24  25 0
 3-21G
 ****
 27  28  29  34  36  39  40  41  42  43  44  45  46 0
 3-21G
 ****


