%nproc=1
%NoSave
%Mem=1900MB
#P OB98/GEN NMR

erre ene a

0 1
  C      -82.581      46.443     -55.998
  O      -83.664      45.697     -56.506
  H      -82.413      46.149     -54.958
  H      -82.824      47.510     -56.026
  H      -81.666      46.260     -56.567
  P      -83.850      45.593     -58.092
  C      -84.773      47.995     -58.282
  O      -83.766      47.079     -58.694
  C      -84.516      49.405     -58.817
  O      -83.407      50.010     -58.115
  C      -84.131      49.404     -60.297
  O      -85.216      49.374     -61.205
  C      -83.353      50.711     -60.416
  O      -84.241      51.818     -60.643
  C      -82.683      50.834     -59.046
  N      -78.040      51.598     -61.038
  C      -79.241      52.188     -61.381
  N      -79.209      53.045     -62.425
  N      -80.367      51.940     -60.766
  C      -80.265      50.991     -59.805
  C      -79.133      50.328     -59.386
  C      -77.880      50.650     -60.037
  O      -76.790      50.151     -59.776
  N      -79.416      49.434     -58.381
  C      -80.725      49.504     -58.246
  N      -81.282      50.454     -59.070
  O      -85.404      45.238     -58.267
  O      -82.985      44.576     -58.773
  H      -83.709      52.632     -60.704
  H      -85.543      44.758     -59.104
  H      -77.199      51.848     -61.527
  H      -81.313      48.912     -57.552
  H      -82.731      51.862     -58.666
  H      -82.654      50.690     -61.258
  H      -78.392      53.177     -63.001
  H      -83.447      48.577     -60.512
  H      -80.096      53.287     -62.872
  H      -85.398      50.029     -58.627
  H      -84.764      48.003     -57.190
  H      -85.759      47.641     -58.596
  P      -85.096      48.546     -62.570
  C      -85.229      50.637     -64.115
  O      -84.470      49.535     -63.664
  O      -86.622      48.389     -63.024
  O      -84.415      47.227     -62.447
  H      -86.971      47.524     -62.741
  H      -84.664      51.187     -64.838
  H      -85.463      51.272     -63.286
  H      -86.136      50.287     -64.562

 6  7  8  9  10  11  12  13  14  15  26  29  33  34 0
 6-311+G(2d,p)
 ****
 36  38  39  40  41 0
 6-311+G(2d,p)
 ****
 1  2  3  4  5  16  17  18  19  20  21  22  23  24  25 0
 3-21G
 ****
 27  28  30  31  32  35  37  42  43  44  45  46  47 0
 3-21G
 ****
 48  49 0
 3-21G
 ****


