%nproc=1
%NoSave
%Mem=1900MB
#P OB98/GEN NMR

erre ene a

0 1
  C      140.847    -386.163    -139.416
  O      141.896    -386.942    -138.846
  P      141.714    -387.426    -137.322
  C      140.499    -386.281    -135.337
  O      141.295    -386.109    -136.501
  C      140.053    -384.930    -134.791
  O      138.954    -384.433    -135.574
  C      139.543    -384.971    -133.355
  O      140.605    -384.956    -132.415
  C      138.742    -383.675    -133.298
  O      139.631    -382.568    -133.056
  C      138.148    -383.587    -134.715
  N      133.297    -382.141    -134.534
  C      134.455    -381.387    -134.431
  N      134.288    -380.054    -134.279
  N      135.658    -381.894    -134.461
  C      135.669    -383.233    -134.653
  C      134.589    -384.086    -134.779
  C      133.261    -383.519    -134.688
  O      132.206    -384.150    -134.709
  N      135.002    -385.380    -134.981
  C      136.318    -385.306    -135.019
  N      136.769    -384.029    -134.801
  O      143.218    -387.694    -136.850
  O      140.850    -388.624    -137.137
  H      140.073    -382.739    -132.195
  H      143.226    -388.337    -136.120
  H      132.397    -381.696    -134.522
  H      136.976    -386.147    -135.202
  H      138.214    -382.568    -135.109
  H      137.997    -383.669    -132.491
  H      133.396    -379.592    -134.378
  H      138.871    -385.822    -133.196
  H      135.123    -379.482    -134.240
  H      140.889    -384.228    -134.881
  H      141.094    -386.794    -134.570
  H      139.638    -386.908    -135.582
  P      140.293    -385.603    -130.977
  C      138.195    -385.177    -129.506
  O      139.227    -384.620    -130.292
  O      141.644    -385.342    -130.156
  O      139.931    -387.049    -131.014
  H      141.746    -386.008    -129.449
  H      138.543    -386.048    -128.945
  H      137.363    -385.470    -130.151
  H      137.844    -384.420    -128.801
  H      141.097    -385.912    -140.426
  H      140.719    -385.266    -138.847
  H      139.937    -386.726    -139.404

 3  4  5  6  7  8  9  10  11  12  23  26  30  31  33  0
 6-311+G(2d,p)
 ****
 35  36  37  38 0
 6-311+G(2d,p)
 ****
 1  2  13  14  15  16  17  18  19  20  21  22  24  25  27  28  29 0
 3-21G
 ****
 32  34  39  40  41  42  43  44  45  46  47  48  49 0
 3-21G
 ****


