%nproc=1
%NoSave
%Mem=1900MB
#P OB98/GEN NMR

erre ene a

0 1
  C       12.018      29.997     -24.143
  O       11.991      29.536     -25.484
  P       13.333      29.059     -26.222
  C       12.207      27.314     -27.737
  O       13.064      27.530     -26.623
  C       11.449      26.001     -27.570
  O       10.473      26.169     -26.514
  C       10.648      25.532     -28.784
  O       11.402      24.811     -29.746
  C        9.651      24.592     -28.119
  O       10.285      23.330     -27.839
  C        9.333      25.327     -26.815
  N        4.230      25.265     -27.177
  C        5.141      24.273     -27.058
  N        6.485      24.370     -26.986
  C        6.867      25.657     -27.004
  C        6.057      26.775     -27.115
  C        4.674      26.543     -27.204
  N        3.747      27.557     -27.302
  N        6.817      27.929     -27.118
  C        8.058      27.510     -26.997
  N        8.140      26.148     -26.916
  O       14.585      29.320     -25.460
  O       13.296      29.811     -27.632
  H       10.309      22.832     -28.677
  H       14.183      29.797     -28.040
  H        4.736      23.265     -27.020
  H        8.926      28.154     -26.968
  H        9.200      24.644     -25.968
  H        8.783      24.378     -28.748
  H       10.104      26.363     -29.248
  H       12.160      25.229     -27.252
  H       12.826      27.259     -28.641
  H        2.775      27.304     -27.229
  H        4.063      28.506     -27.159
  H       11.520      28.157     -27.842
  P       11.838      25.600     -31.078
  C       13.813      24.167     -32.023
  O       13.398      25.288     -31.274
  O       11.465      27.041     -31.094
  O       11.142      24.746     -32.240
  H       11.497      23.851     -32.364
  H       14.895      24.224     -32.171
  H       13.328      24.150     -33.002
  H       13.581      23.246     -31.480
  H       11.028      30.266     -23.838
  H       12.657      30.852     -24.073
  H       12.389      29.221     -23.506

 3  4  5  6  7  8  9  10  11  12  22  25  29  30  31  32 0
 6-311+G(2d,p)
 ****
 33  36  37 0
 6-311+G(2d,p)
 ****
 1  2  13  14  15  16  17  18  19  20  21  23  24  26 0
 3-21G
 ****
 27  28  34  35  38  39  40  41  42  43  44  45  46  47  48 0
 3-21G
 ****


