%nproc=1
%NoSave
%Mem=1900MB
#P OB98/GEN NMR

erre ene a

0 1
  C       52.415     -81.037    -313.155
  O       51.743     -80.666    -311.965
  H       52.043     -80.419    -313.977
  H       52.213     -82.087    -313.383
  H       53.492     -80.878    -313.052
  P       52.309     -81.291    -310.604
  C       51.285     -83.695    -310.830
  O       52.448     -82.878    -310.829
  C       51.542     -84.974    -310.039
  O       52.669     -85.692    -310.580
  C       51.926     -84.743    -308.587
  O       50.834     -84.328    -307.796
  C       52.456     -86.121    -308.214
  O       51.398     -87.010    -307.832
  C       53.114     -86.588    -309.534
  N       54.561     -86.637    -309.425
  C       55.120     -87.922    -309.433
  O       54.394     -88.911    -309.546
  N       56.474     -88.050    -309.273
  C       57.205     -86.995    -309.095
  N       58.538     -87.194    -308.911
  C       56.657     -85.623    -309.080
  C       55.338     -85.517    -309.248
  O       51.054     -81.170    -309.621
  O       53.552     -80.648    -310.090
  H       50.591     -86.684    -308.280
  H       50.225     -81.504    -310.002
  H       57.309     -84.774    -308.941
  H       54.851     -84.549    -309.251
  H       52.757     -87.590    -309.808
  H       53.149     -86.070    -307.370
  H       52.757     -84.030    -308.525
  H       50.650     -85.610    -310.121
  H       58.863     -88.152    -308.873
  H       50.986     -83.935    -311.856
  H       59.189     -86.457    -308.684
  H       50.474     -83.120    -310.375
  P       51.037     -83.340    -306.553
  C       51.413     -85.317    -304.944
  O       51.957     -84.119    -305.488
  O       49.783     -82.770    -305.978
  O       52.051     -82.239    -307.126
  H       52.907     -82.590    -307.427
  H       52.110     -85.744    -304.253
  H       51.223     -86.013    -305.734
  H       50.498     -85.095    -304.436

 6  7  8  9  10  11  12  13  14  15  16  26  30  31  32  33  35 0
 6-311+G(2d,p)
 ****
 37  38 0
 6-311+G(2d,p)
 ****
 1  2  3  4  5  17  18  19  20  21  22  23  24  25 0
 3-21G
 ****
 27  28  29  34  36  39  40  41  42  43  44  45  46 0
 3-21G
 ****


