%nproc=1
%NoSave
%Mem=1900MB
#P OB98/GEN NMR

erre ene a

0 1
  C       21.150      12.745      56.324
  O       21.821      13.935      55.959
  H       21.845      11.907      56.225
  H       20.295      12.568      55.666
  H       20.816      12.800      57.363
  P       20.993      15.304      55.943
  C       20.619      15.184      53.386
  O       20.016      15.226      54.674
  C       19.885      16.111      52.419
  O       18.564      15.605      52.145
  C       19.686      17.528      52.946
  O       20.894      18.257      52.884
  C       18.580      18.014      52.024
  O       19.105      18.384      50.740
  C       17.702      16.743      51.909
  N       16.568      16.734      52.827
  C       15.347      17.170      52.300
  O       15.274      17.546      51.131
  N       14.247      17.183      53.123
  C       14.344      16.760      54.343
  N       13.218      16.794      55.103
  C       15.604      16.260      54.926
  C       16.667      16.286      54.125
  O       21.797      16.565      56.027
  O       19.988      15.162      57.181
  H       19.707      19.138      50.900
  H       20.369      15.574      57.979
  H       15.637      15.907      55.946
  H       17.633      15.936      54.476
  H       17.313      16.638      50.888
  H       18.063      18.887      52.421
  H       19.295      17.501      53.969
  H       20.439      16.118      51.471
  H       12.371      17.127      54.653
  H       20.556      14.149      53.035
  H       13.136      16.344      56.003
  H       21.677      15.464      53.445
  P       21.141      19.551      53.797
  C       20.446      20.905      51.725
  O       20.284      20.730      53.124
  O       22.572      19.883      54.054
  O       20.311      19.237      55.128
  H       20.803      18.596      55.698
  H       19.829      21.714      51.393
  H       20.160      20.007      51.218
  H       21.471      21.126      51.509

 6  7  8  9  10  11  12  13  14  15  16  26  30  31  32  33  35 0
 6-311+G(2d,p)
 ****
 37  38 0
 6-311+G(2d,p)
 ****
 1  2  3  4  5  17  18  19  20  21  22  23  24  25 0
 3-21G
 ****
 27  28  29  34  36  39  40  41  42  43  44  45  46 0
 3-21G
 ****


