%nproc=1
%NoSave
%Mem=1900MB
#P OB98/GEN NMR

erre ene a

0 1
  C      532.160    -157.787      83.571
  O      531.753    -159.160      83.674
  P      530.750    -159.835      82.617
  C      530.788    -160.432      80.107
  O      531.569    -160.180      81.278
  C      531.644    -160.365      78.834
  O      532.191    -159.043      78.658
  C      532.828    -161.321      78.812
  O      532.404    -162.635      78.495
  C      533.726    -160.660      77.768
  O      533.284    -161.007      76.439
  C      533.490    -159.169      78.043
  N      535.785    -154.787      79.367
  C      534.769    -155.062      78.515
  N      534.217    -156.258      78.208
  C      534.808    -157.237      78.912
  C      535.854    -157.115      79.809
  C      536.355    -155.824      80.029
  N      537.406    -155.559      80.879
  N      536.217    -158.355      80.307
  C      535.377    -159.202      79.737
  N      534.507    -158.579      78.883
  O      529.498    -159.058      82.385
  O      530.418    -161.277      83.232
  H      533.323    -161.976      76.363
  H      529.535    -161.566      82.934
  H      534.339    -154.196      78.013
  H      535.365    -160.274      79.913
  H      533.453    -158.590      77.109
  H      534.770    -160.972      77.856
  H      533.337    -161.314      79.787
  H      530.980    -160.557      77.981
  H      529.994    -159.678      80.057
  H      537.731    -154.606      80.957
  H      537.865    -156.330      81.346
  H      530.341    -161.422      80.201
  P      532.107    -163.688      79.672
  C      530.357    -163.777      81.547
  O      530.625    -163.403      80.206
  O      533.162    -163.791      80.728
  O      531.933    -165.075      78.891
  H      532.206    -165.816      79.468
  H      530.157    -164.853      81.583
  H      529.479    -163.241      81.887
  H      531.192    -163.532      82.197
  H      532.826    -157.551      84.375
  H      531.298    -157.155      83.624
  H      532.659    -157.632      82.637

 3  4  5  6  7  8  9  10  11  12  22  25  29  30  31  32 0
 6-311+G(2d,p)
 ****
 33  36  37 0
 6-311+G(2d,p)
 ****
 1  2  13  14  15  16  17  18  19  20  21  23  24  26 0
 3-21G
 ****
 27  28  34  35  38  39  40  41  42  43  44  45  46  47  48 0
 3-21G
 ****


