%nproc=1
%NoSave
%Mem=1900MB
#P OB98/GEN NMR

erre ene a

0 1
  C      -81.816    -201.429    -174.888
  O      -80.678    -201.669    -175.686
  H      -81.733    -200.429    -174.454
  H      -81.856    -202.162    -174.079
  H      -82.736    -201.480    -175.477
  P      -80.739    -202.829    -176.784
  C      -78.159    -202.762    -176.862
  O      -79.319    -203.582    -176.795
  C      -77.080    -203.229    -175.886
  O      -77.505    -202.964    -174.532
  C      -76.814    -204.734    -175.979
  O      -75.859    -205.102    -176.959
  C      -76.310    -205.052    -174.574
  O      -74.886    -204.871    -174.476
  C      -77.042    -204.033    -173.692
  N      -78.594    -206.694    -169.612
  C      -77.306    -206.476    -170.067
  N      -76.321    -207.075    -169.364
  N      -77.029    -205.754    -171.121
  C      -78.121    -205.305    -171.777
  C      -79.444    -205.473    -171.433
  C      -79.741    -206.210    -170.224
  O      -80.861    -206.416    -169.769
  N      -80.283    -204.905    -172.364
  C      -79.468    -204.474    -173.305
  N      -78.146    -204.621    -172.957
  O      -80.714    -202.029    -178.174
  O      -81.939    -203.724    -176.711
  H      -74.458    -205.549    -175.034
  H      -81.218    -202.524    -178.845
  H      -78.744    -207.234    -168.780
  H      -79.779    -204.011    -174.234
  H      -76.368    -203.588    -172.952
  H      -76.510    -206.095    -174.313
  H      -76.483    -207.710    -168.599
  H      -77.747    -205.283    -176.138
  H      -75.384    -207.098    -169.772
  H      -76.164    -202.648    -176.053
  H      -78.480    -201.750    -176.611
  H      -77.767    -202.740    -177.883
  P      -76.120    -206.339    -177.936
  C      -73.532    -206.454    -178.359
  O      -74.749    -207.130    -178.126
  O      -76.343    -205.637    -179.356
  O      -77.264    -207.221    -177.564
  H      -77.294    -205.555    -179.557
  H      -72.741    -207.168    -178.457
  H      -73.324    -205.801    -177.537
  H      -73.609    -205.881    -179.259

 6  7  8  9  10  11  12  13  14  15  26  29  33  34 0
 6-311+G(2d,p)
 ****
 36  38  39  40  41 0
 6-311+G(2d,p)
 ****
 1  2  3  4  5  16  17  18  19  20  21  22  23  24  25 0
 3-21G
 ****
 27  28  30  31  32  35  37  42  43  44  45  46  47 0
 3-21G
 ****
 48  49 0
 3-21G
 ****


