%nproc=1
%NoSave
%Mem=1900MB
#P OB98/GEN NMR

erre ene a

0 1
  C      220.750      -0.504     -23.442
  O      221.999      -0.574     -24.105
  P      222.803      -1.954     -24.191
  C      224.135      -1.340     -22.091
  O      223.306      -2.316     -22.709
  C      225.252      -1.995     -21.277
  O      224.670      -2.636     -20.108
  C      226.056      -3.064     -22.031
  O      227.401      -2.992     -21.542
  C      225.412      -4.360     -21.564
  O      226.256      -5.491     -21.743
  C      225.121      -4.009     -20.110
  N      222.524      -5.119     -15.847
  C      223.521      -4.240     -16.088
  N      224.180      -4.022     -17.244
  C      223.710      -4.823     -18.217
  C      222.722      -5.789     -18.113
  C      222.100      -5.917     -16.858
  N      221.057      -6.780     -16.602
  N      222.562      -6.448     -19.320
  C      223.437      -5.890     -20.131
  N      224.106      -4.859     -19.527
  O      223.867      -2.009     -25.239
  O      221.665      -3.049     -24.465
  H      227.165      -5.242     -21.482
  H      221.709      -3.343     -25.396
  H      223.827      -3.629     -15.244
  H      223.627      -6.188     -21.152
  H      226.017      -4.073     -19.481
  H      224.486      -4.535     -22.126
  H      226.032      -2.951     -23.119
  H      225.917      -1.202     -20.911
  H      223.510      -0.737     -21.425
  H      220.597      -6.694     -15.709
  H      220.551      -7.185     -17.386
  H      224.565      -0.681     -22.855
  P      228.623      -3.368     -22.509
  C      229.063      -5.612     -21.352
  O      228.689      -4.968     -22.560
  O      229.914      -2.684     -22.203
  O      228.080      -2.982     -23.967
  H      228.830      -2.907     -24.586
  H      230.150      -5.577     -21.246
  H      228.742      -6.653     -21.391
  H      228.599      -5.127     -20.490
  H      220.375       0.497     -23.493
  H      220.874      -0.787     -22.417
  H      220.058      -1.169     -23.915

 3  4  5  6  7  8  9  10  11  12  22  25  29  30  31  32 0
 6-311+G(2d,p)
 ****
 33  36  37 0
 6-311+G(2d,p)
 ****
 1  2  13  14  15  16  17  18  19  20  21  23  24  26 0
 3-21G
 ****
 27  28  34  35  38  39  40  41  42  43  44  45  46  47  48 0
 3-21G
 ****


