%nproc=1
%NoSave
%Mem=1900MB
#P OB98/GEN NMR

erre ene a

0 1
  C       58.834      20.578      15.315
  O       58.178      19.308      15.280
  P       58.702      18.179      16.295
  C       58.386      15.928      15.004
  O       57.868      16.852      15.945
  C       57.525      14.661      14.955
  O       57.622      13.950      16.226
  C       56.040      14.915      14.674
  O       55.583      13.836      13.846
  C       55.411      14.823      16.052
  O       54.022      14.533      15.986
  C       56.272      13.724      16.683
  N       56.194      13.711      18.141
  C       55.311      12.807      18.716
  O       54.558      12.095      18.054
  N       55.287      12.780      20.084
  C       55.989      13.609      20.913
  O       55.930      13.543      22.134
  C       56.820      14.622      20.245
  C       56.881      14.626      18.911
  O       58.085      18.685      17.678
  O       60.187      18.026      16.280
  H       57.201      19.080      17.586
  H       53.582      15.204      15.426
  H       54.677      12.108      20.523
  H       57.346      15.335      20.867
  H       57.465      15.371      18.388
  H       55.965      12.738      16.313
  H       55.543      15.770      16.586
  H       55.858      15.869      14.173
  H       57.941      14.000      14.184
  H       59.407      15.650      15.282
  H       58.442      16.407      14.021
  P       54.976      14.193      12.398
  C       52.826      12.703      12.324
  O       54.154      12.912      11.903
  O       56.311      14.128      11.512
  O       54.287      15.514      12.310
  H       56.845      13.336      11.686
  H       52.377      11.926      11.701
  H       52.231      13.615      12.222
  H       52.813      12.369      13.365
  H       58.388      21.230      14.593
  H       59.872      20.450      15.087
  H       58.734      21.005      16.291

 3  4  5  6  7  8  9  10  11  12  13  24  28  29  30  31  32 0
 6-311+G(2d,p)
 ****
 33  34 0
 6-311+G(2d,p)
 ****
 1  2  14  15  16  17  18  19  20  21  22  23  25  26  27 0
 3-21G
 ****
 35  36  37  38  39  40  41  42  43  44  45 0
 3-21G
 ****


