%nproc=1
%NoSave
%Mem=1900MB
#P OB98/GEN NMR

erre ene a

0 1
  C     -252.415     107.483     617.847
  O     -251.943     106.216     618.240
  H     -251.928     108.246     618.469
  H     -253.494     107.560     617.983
  H     -252.151     107.681     616.798
  P     -252.550     104.916     617.520
  C     -250.389     104.481     616.169
  O     -251.788     104.760     616.120
  C     -250.119     103.059     615.675
  O     -250.422     103.017     614.250
  C     -248.650     102.642     615.865
  O     -248.505     101.405     616.561
  C     -248.071     102.722     614.455
  O     -246.964     101.875     614.218
  C     -249.284     102.443     613.559
  N     -249.181     102.995     612.216
  C     -248.466     102.250     611.273
  O     -247.955     101.153     611.485
  N     -248.373     102.816     610.034
  C     -248.893     104.020     609.639
  O     -248.779     104.460     608.505
  C     -249.603     104.766     610.686
  C     -249.719     104.235     611.899
  O     -254.038     104.862     617.434
  O     -251.966     103.693     618.378
  H     -246.586     102.134     613.349
  H     -252.666     103.350     618.977
  H     -247.878     102.269     609.330
  H     -250.015     105.726     610.412
  H     -250.234     104.762     612.700
  H     -249.463     101.365     613.476
  H     -247.736     103.758     614.284
  H     -248.122     103.352     616.508
  H     -250.805     102.368     616.182
  H     -250.065     104.590     617.209
  H     -249.846     105.201     615.542
  P     -247.242     101.000     617.457
  C     -248.136     101.782     619.799
  O     -247.207     101.965     618.738
  O     -245.961     100.819     616.714
  O     -247.661      99.578     618.075
  H     -246.827      99.055     618.161
  H     -247.959     102.515     620.559
  H     -248.016     100.803     620.213
  H     -249.132     101.891     619.424

 6  7  8  9  10  11  12  13  14  15  16  26  31  32  33  34  35 0
 6-311+G(2d,p)
 ****
 36  37 0
 6-311+G(2d,p)
 ****
 1  2  3  4  5  17  18  19  20  21  22  23  24  25 0
 3-21G
 ****
 27  28  29  30  38  39  40  41  42  43  44  45 0
 3-21G
 ****


