%nproc=1
%NoSave
%Mem=1900MB
#P OB98/GEN NMR

erre ene a

0 1
  C       34.535      -6.706     -52.743
  O       33.308      -6.337     -52.157
  P       32.669      -7.076     -50.896
  C       31.663      -9.434     -50.375
  O       32.308      -8.581     -51.314
  C       31.601     -10.879     -50.893
  O       32.956     -11.361     -51.078
  C       30.926     -11.816     -49.877
  O       30.037     -12.759     -50.459
  C       32.108     -12.365     -49.085
  O       31.818     -13.571     -48.395
  C       33.187     -12.453     -50.162
  N       37.102     -14.968     -48.113
  C       35.954     -15.471     -48.694
  N       35.744     -16.798     -48.548
  N       35.079     -14.729     -49.327
  C       35.366     -13.406     -49.295
  C       36.473     -12.794     -48.751
  C       37.445     -13.627     -48.084
  O       38.420     -13.212     -47.455
  N       36.395     -11.427     -48.844
  C       35.226     -11.209     -49.414
  N       34.550     -12.380     -49.675
  O       31.662      -6.304     -50.106
  O       33.967      -7.293     -49.956
  H       31.312     -14.144     -49.003
  H       33.664      -7.218     -49.028
  H       37.696     -15.581     -47.566
  H       34.809     -10.232     -49.631
  H       33.116     -13.384     -50.723
  H       32.370     -11.618     -48.327
  H       36.322     -17.364     -47.941
  H       30.279     -11.245     -49.200
  H       34.806     -17.140     -48.741
  H       31.104     -10.889     -51.869
  H       30.650      -9.037     -50.243
  H       32.169      -9.393     -49.407
  P       28.997     -13.734     -49.737
  C       29.075     -15.642     -48.024
  O       29.815     -14.856     -48.937
  O       28.317     -14.567     -50.922
  O       27.950     -13.040     -48.930
  H       27.366     -14.685     -50.737
  H       29.772     -16.161     -47.359
  H       28.487     -16.386     -48.570
  H       28.408     -15.017     -47.422
  H       34.744      -6.060     -53.570
  H       34.476      -7.718     -53.086
  H       35.317      -6.620     -52.017

 3  4  5  6  7  8  9  10  11  12  23  26  30  31 0
 6-311+G(2d,p)
 ****
 33  35  36  37  38 0
 6-311+G(2d,p)
 ****
 1  2  13  14  15  16  17  18  19  20  21  22  24  25 0
 3-21G
 ****
 27  28  29  32  34  39  40  41  42  43  44  45  46  47  48  49 0
 3-21G
 ****


