%nproc=1
%NoSave
%Mem=1900MB
#P OB98/GEN NMR

erre ene a

0 1
  C      -36.175    -240.828     343.216
  O      -35.370    -240.010     344.037
  P      -34.505    -240.651     345.227
  C      -35.741    -239.331     347.058
  O      -35.444    -240.619     346.531
  C      -36.649    -239.459     348.276
  O      -37.965    -239.946     347.900
  C      -36.161    -240.465     349.312
  O      -34.963    -240.163     349.994
  C      -37.412    -240.653     350.157
  O      -37.564    -239.596     351.102
  C      -38.525    -240.579     349.079
  N      -39.080    -241.898     348.778
  C      -39.972    -242.408     349.712
  O      -40.293    -241.820     350.744
  N      -40.466    -243.659     349.446
  C      -40.128    -244.444     348.378
  O      -40.575    -245.571     348.223
  C      -39.169    -243.852     347.428
  C      -38.695    -242.626     347.667
  O      -33.152    -240.054     345.422
  O      -34.481    -242.213     344.866
  H      -38.325    -239.824     351.676
  H      -35.358    -242.632     344.816
  H      -41.102    -244.055     350.114
  H      -38.890    -244.444     346.569
  H      -37.983    -242.170     346.983
  H      -39.345    -239.934     349.423
  H      -37.384    -241.593     350.721
  H      -35.976    -241.419     348.799
  H      -36.787    -238.468     348.714
  H      -36.257    -238.742     346.290
  H      -34.808    -238.812     347.309
  P      -34.150    -241.237     350.861
  C      -34.614    -240.074     353.133
  O      -34.750    -241.243     352.348
  O      -32.665    -241.228     350.717
  O      -34.721    -242.622     350.273
  H      -34.020    -243.301     350.324
  H      -35.034    -240.269     354.123
  H      -35.163    -239.245     352.676
  H      -33.560    -239.807     353.247
  H      -36.671    -240.223     342.486
  H      -36.904    -241.330     343.818
  H      -35.561    -241.552     342.722

 3  4  5  6  7  8  9  10  11  12  13  23  28  29  30  31  32 0
 6-311+G(2d,p)
 ****
 33  34 0
 6-311+G(2d,p)
 ****
 1  2  14  15  16  17  18  19  20  21  22  24  25  26  27 0
 3-21G
 ****
 35  36  37  38  39  40  41  42  43  44  45 0
 3-21G
 ****


