%nproc=1
%NoSave
%Mem=1900MB
#P OB98/GEN NMR

erre ene a

0 1
  C       85.282      23.929    -315.348
  O       85.382      24.558    -314.066
  P       84.146      25.154    -313.247
  C       83.626      24.987    -310.678
  O       84.573      25.251    -311.706
  C       84.273      24.514    -309.361
  O       84.922      23.230    -309.575
  C       85.368      25.490    -308.922
  O       85.028      26.658    -308.198
  C       86.412      24.613    -308.234
  O       86.229      24.547    -306.822
  C       86.184      23.237    -308.871
  N       90.843      21.162    -309.338
  C       90.129      21.455    -308.194
  N       90.749      21.210    -307.016
  N       88.921      21.957    -308.199
  C       88.454      22.231    -309.437
  C       89.076      22.007    -310.649
  C       90.389      21.398    -310.630
  O       91.062      21.109    -311.619
  N       88.299      22.436    -311.698
  C       87.228      22.941    -311.127
  N       87.268      22.837    -309.753
  O       82.818      24.543    -313.545
  O       84.097      26.695    -313.722
  H       86.374      25.442    -306.458
  H       83.152      26.962    -313.709
  H       91.758      20.751    -309.276
  H       86.391      23.387    -311.653
  H       86.108      22.454    -308.099
  H       87.415      25.015    -308.403
  H       91.715      20.939    -306.941
  H       85.857      25.859    -309.835
  H       90.320      21.621    -306.182
  H       83.515      24.338    -308.592
  H       82.945      24.221    -311.064
  H       83.017      25.877    -310.491
  P       85.154      28.166    -308.721
  C       84.128      30.422    -308.063
  O       84.514      29.133    -307.616
  O       84.098      28.253    -309.922
  O       86.524      28.563    -309.189
  H       84.275      29.040    -310.478
  H       83.996      31.075    -307.192
  H       83.171      30.351    -308.594
  H       84.887      30.855    -308.721
  H       86.255      23.621    -315.671
  H       84.874      24.622    -316.054
  H       84.643      23.074    -315.277

 3  4  5  6  7  8  9  10  11  12  23  26  30  31 0
 6-311+G(2d,p)
 ****
 33  35  36  37  38 0
 6-311+G(2d,p)
 ****
 1  2  13  14  15  16  17  18  19  20  21  22  24  25 0
 3-21G
 ****
 27  28  29  32  34  39  40  41  42  43  44  45  46  47  48  49 0
 3-21G
 ****


