%nproc=1
%NoSave
%Mem=1900MB
#P OB98/GEN NMR

erre ene a

0 1
  C      410.795     828.095     218.662
  O      410.356     827.246     219.710
  P      410.088     827.799     221.176
  C      411.968     826.266     222.030
  O      411.469     827.599     221.985
  C      413.373     826.239     222.647
  O      414.300     826.992     221.839
  C      413.455     826.839     224.050
  O      412.935     825.928     225.011
  C      414.944     827.113     224.158
  O      415.667     825.931     224.549
  C      415.304     827.527     222.713
  N      415.451     828.971     222.564
  C      416.518     829.548     223.234
  O      417.288     828.856     223.954
  N      416.706     830.914     223.150
  C      415.860     831.616     222.459
  N      416.081     832.967     222.420
  C      414.686     831.042     221.761
  C      414.546     829.733     221.863
  O      408.863     827.282     221.852
  O      410.061     829.404     220.947
  H      416.615     826.182     224.605
  H      409.221     829.684     220.506
  H      414.013     831.685     221.219
  H      413.713     829.224     221.374
  H      416.254     827.061     222.415
  H      415.164     827.881     224.914
  H      412.900     827.778     224.071
  H      413.710     825.177     222.675
  H      416.881     833.326     222.932
  H      412.026     825.874     221.021
  H      415.469     833.620     221.956
  H      411.284     825.635     222.613
  P      412.614     826.446     226.486
  C      414.676     825.182     227.360
  O      413.995     826.417     227.318
  O      411.446     825.803     227.146
  O      412.349     828.020     226.289
  H      411.563     828.272     226.814
  H      415.718     825.366     227.642
  H      414.669     824.697     226.370
  H      414.207     824.530     228.105
  H      410.912     827.523     217.765
  H      411.733     828.536     218.929
  H      410.071     828.866     218.501

 3  4  5  6  7  8  9  10  11  12  13  23  27  28  29  30  32 0
 6-311+G(2d,p)
 ****
 34  35 0
 6-311+G(2d,p)
 ****
 1  2  14  15  16  17  18  19  20  21  22  24  25  26 0
 3-21G
 ****
 31  33  36  37  38  39  40  41  42  43  44  45  46 0
 3-21G
 ****


