%nproc=1
%NoSave
%Mem=1900MB
#P OB98/GEN NMR

erre ene a

0 1
  C     -268.987       0.522     102.489
  O     -270.358       0.212     102.686
  P     -270.857      -0.053     104.192
  C     -269.967      -1.534     106.145
  O     -270.003      -1.294     104.747
  C     -268.643      -2.186     106.545
  O     -267.561      -1.478     105.883
  C     -268.343      -2.168     108.049
  O     -267.594      -3.357     108.338
  C     -267.447      -0.952     108.205
  O     -266.661      -0.997     109.393
  C     -266.649      -1.021     106.907
  N     -262.409       1.637     106.158
  C     -262.573       0.347     106.635
  N     -261.442      -0.346     106.887
  N     -263.738      -0.210     106.839
  C     -264.776       0.601     106.524
  C     -264.742       1.905     106.080
  C     -263.448       2.494     105.824
  O     -263.256       3.598     105.321
  N     -266.005       2.426     105.958
  C     -266.800       1.417     106.245
  N     -266.105       0.275     106.549
  O     -272.317      -0.664     103.979
  O     -270.859       1.140     105.096
  H     -266.230      -0.124     109.500
  H     -273.003       0.032     104.032
  H     -261.484       2.004     105.999
  H     -267.878       1.447     106.245
  H     -265.814      -1.726     106.963
  H     -268.062      -0.043     108.244
  H     -260.513       0.012     106.724
  H     -269.236      -2.119     108.672
  H     -261.539      -1.303     107.208
  H     -268.636      -3.218     106.166
  H     -270.783      -2.216     106.407
  H     -270.116      -0.592     106.684
  P     -267.517      -3.836     109.869
  C     -266.073      -3.194     111.920
  O     -266.565      -2.816     110.651
  O     -266.629      -5.170     109.779
  O     -268.837      -4.125     110.502
  H     -266.912      -5.797     110.466
  H     -265.165      -2.618     112.130
  H     -265.825      -4.261     111.955
  H     -266.821      -2.969     112.686
  H     -268.802       0.672     101.446
  H     -268.384      -0.286     102.846
  H     -268.742       1.414     103.027

 3  4  5  6  7  8  9  10  11  12  23  26  30  31 0
 6-311+G(2d,p)
 ****
 33  35  36  37  38 0
 6-311+G(2d,p)
 ****
 1  2  13  14  15  16  17  18  19  20  21  22  24  25 0
 3-21G
 ****
 27  28  29  32  34  39  40  41  42  43  44  45  46  47  48  49 0
 3-21G
 ****


