%nproc=1
%NoSave
%Mem=1900MB
#P OB98/GEN NMR

erre ene a

0 1
  C      104.644     163.313      29.732
  O      103.810     163.995      30.646
  H      105.555     163.003      30.251
  H      104.919     163.972      28.906
  H      104.135     162.423      29.348
  P      102.436     164.589      30.069
  C      103.344     167.024      30.081
  O      102.357     166.117      30.556
  C      103.230     168.348      30.838
  O      101.931     168.935      30.605
  C      103.341     168.209      32.355
  O      104.681     168.062      32.779
  C      102.717     169.516      32.808
  O      103.671     170.589      32.791
  C      101.607     169.739      31.757
  N      100.276     169.436      32.283
  C       99.627     170.487      32.919
  O      100.117     171.610      33.045
  N       98.396     170.199      33.449
  C       97.788     168.976      33.433
  O       96.716     168.760      33.992
  C       98.521     167.903      32.737
  C       99.716     168.171      32.214
  O      101.324     163.850      30.949
  O      102.226     164.386      28.606
  H      100.912     163.132      30.433
  H      103.955     170.689      31.863
  H       97.915     170.946      33.922
  H       98.062     166.924      32.705
  H      100.286     167.399      31.709
  H      101.604     170.785      31.422
  H      102.341     169.449      33.830
  H      102.718     167.374      32.702
  H      103.998     169.033      30.458
  H      103.189     167.209      29.016
  H      104.336     166.582      30.225
  P      104.989     167.106      34.032
  C      106.458     168.859      35.332
  O      106.377     167.609      34.664
  O      105.374     165.741      33.289
  O      103.859     167.000      35.002
  H      105.859     165.878      32.458
  H      107.458     169.013      35.680
  H      105.786     168.863      36.165
  H      106.191     169.643      34.655

 6  7  8  9  10  11  12  13  14  15  16  27  31  32  33  34  35 0
 6-311+G(2d,p)
 ****
 36  37 0
 6-311+G(2d,p)
 ****
 1  2  3  4  5  17  18  19  20  21  22  23  24  25 0
 3-21G
 ****
 26  28  29  30  38  39  40  41  42  43  44  45 0
 3-21G
 ****


