%nproc=1
%NoSave
%Mem=1900MB
#P OB98/GEN NMR

erre ene a

0 1
  C     -281.587    -408.573    -146.567
  O     -280.203    -408.879    -146.788
  P     -279.809    -409.665    -148.124
  C     -277.514    -410.611    -147.345
  O     -278.211    -409.730    -148.214
  C     -276.203    -409.973    -146.879
  O     -276.431    -408.948    -145.883
  C     -275.234    -410.961    -146.243
  O     -274.480    -411.663    -147.223
  C     -274.324    -410.020    -145.467
  O     -273.354    -409.433    -146.354
  C     -275.311    -408.957    -144.964
  N     -274.587    -407.948    -140.060
  C     -273.906    -407.490    -141.172
  N     -272.892    -406.631    -140.944
  N     -274.199    -407.847    -142.395
  C     -275.250    -408.692    -142.475
  C     -275.999    -409.219    -141.446
  C     -275.659    -408.834    -140.096
  O     -276.214    -409.218    -139.071
  N     -276.978    -410.053    -141.919
  C     -276.838    -410.018    -143.233
  N     -275.787    -409.219    -143.616
  O     -280.183    -408.617    -149.277
  O     -280.523    -410.966    -148.307
  H     -272.800    -410.166    -146.688
  H     -280.409    -409.094    -150.098
  H     -274.315    -407.651    -139.137
  H     -277.463    -410.549    -143.936
  H     -274.874    -407.950    -144.964
  H     -273.761    -410.538    -144.683
  H     -272.646    -406.280    -140.031
  H     -275.753    -411.639    -145.553
  H     -272.404    -406.258    -141.752
  H     -275.721    -409.508    -147.752
  H     -277.309    -411.559    -147.847
  H     -278.163    -410.860    -146.499
  P     -274.296    -413.246    -147.035
  C     -271.763    -413.277    -147.596
  O     -273.069    -413.664    -147.969
  O     -275.579    -413.842    -147.784
  O     -274.222    -413.700    -145.615
  H     -275.859    -414.672    -147.356
  H     -271.047    -413.780    -148.249
  H     -271.554    -413.563    -146.559
  H     -271.644    -412.196    -147.709
  H     -281.693    -408.050    -145.640
  H     -282.152    -409.481    -146.531
  H     -281.949    -407.960    -147.366

 3  4  5  6  7  8  9  10  11  12  23  26  30  31 0
 6-311+G(2d,p)
 ****
 33  35  36  37  38 0
 6-311+G(2d,p)
 ****
 1  2  13  14  15  16  17  18  19  20  21  22  24  25 0
 3-21G
 ****
 27  28  29  32  34  39  40  41  42  43  44  45  46  47  48  49 0
 3-21G
 ****


