%nproc=1
%NoSave
%Mem=1900MB
#P OB98/GEN NMR

erre ene a

0 1
  C      -20.642      -6.100     176.628
  O      -20.033      -6.282     175.364
  H      -19.990      -5.476     177.243
  H      -20.779      -7.065     177.124
  H      -21.604      -5.597     176.511
  P      -20.818      -7.206     174.314
  C      -19.469      -6.138     172.381
  O      -19.818      -7.333     173.067
  C      -18.188      -6.338     171.576
  O      -17.052      -6.412     172.455
  C      -18.164      -7.612     170.739
  O      -18.837      -7.409     169.507
  C      -16.668      -7.794     170.532
  O      -16.220      -6.939     169.461
  C      -16.077      -7.310     171.867
  N      -12.823      -8.859     175.523
  C      -12.755      -7.846     174.634
  N      -13.628      -7.526     173.655
  C      -14.670      -8.374     173.650
  C      -14.873      -9.455     174.495
  C      -13.892      -9.685     175.474
  N      -13.965     -10.722     176.378
  N      -16.053     -10.100     174.190
  C      -16.581      -9.386     173.218
  N      -15.765      -8.352     172.830
  O      -22.213      -6.786     173.999
  O      -20.682      -8.642     175.011
  H      -15.318      -6.649     169.690
  H      -19.791      -8.757     175.387
  H      -11.879      -7.208     174.717
  H      -17.555      -9.560     172.775
  H      -15.154      -6.739     171.719
  H      -16.403      -8.815     170.255
  H      -18.556      -8.471     171.295
  H      -18.048      -5.454     170.939
  H      -19.332      -5.318     173.095
  H      -13.135     -10.928     176.911
  H      -14.696     -11.408     176.254
  H      -20.300      -5.882     171.716
  P      -19.654      -8.598     168.805
  C      -21.663      -7.036     168.436
  O      -20.684      -7.864     167.819
  O      -20.247      -9.583     169.750
  O      -18.603      -9.258     167.797
  H      -18.914     -10.141     167.523
  H      -22.289      -6.603     167.684
  H      -21.177      -6.258     168.987
  H      -22.260      -7.624     169.101

 6  7  8  9  10  11  12  13  14  15  25  28  32  33  34  35 0
 6-311+G(2d,p)
 ****
 36  39  40 0
 6-311+G(2d,p)
 ****
 1  2  3  4  5  16  17  18  19  20  21  22  23  24 0
 3-21G
 ****
 26  27  29  30  31  37  38  41  42  43  44  45  46  47 0
 3-21G
 ****
 48 0
 3-21G
 ****


