%nproc=1
%NoSave
%Mem=1900MB
#P OB98/GEN NMR

erre ene a

0 1
  C     1214.997    1299.587    -313.400
  O     1215.317    1299.220    -314.730
  H     1214.676    1298.691    -312.864
  H     1214.194    1300.315    -313.378
  H     1215.888    1299.992    -312.897
  P     1215.714    1300.382    -315.759
  C     1213.477    1300.562    -317.044
  O     1214.838    1300.146    -317.082
  C     1212.630    1299.769    -318.036
  O     1212.555    1298.388    -317.597
  C     1211.193    1300.291    -318.196
  O     1210.754    1300.012    -319.520
  C     1210.445    1299.414    -317.195
  O     1209.066    1299.474    -317.381
  C     1211.146    1298.072    -317.445
  N     1210.922    1297.115    -316.376
  C     1209.690    1296.441    -316.407
  O     1208.876    1296.664    -317.302
  N     1209.406    1295.525    -315.425
  C     1210.262    1295.364    -314.445
  N     1209.917    1294.460    -313.483
  C     1211.534    1296.108    -314.347
  C     1211.792    1296.940    -315.327
  O     1217.180    1300.556    -316.012
  O     1215.070    1301.708    -315.125
  H     1208.804    1299.051    -318.220
  H     1215.763    1302.246    -314.711
  H     1212.193    1295.946    -313.481
  H     1212.722    1297.538    -315.346
  H     1210.804    1297.629    -318.394
  H     1210.646    1299.762    -316.171
  H     1211.090    1301.360    -317.969
  H     1213.153    1299.774    -319.013
  H     1209.022    1293.972    -313.583
  H     1213.457    1301.626    -317.285
  H     1210.477    1294.267    -312.656
  H     1213.067    1300.430    -316.029
  P     1209.942    1301.062    -320.421
  C     1207.764    1299.730    -320.724
  O     1208.914    1300.272    -321.357
  O     1210.798    1302.035    -321.150
  O     1208.989    1301.827    -319.379
  H     1208.843    1302.738    -319.705
  H     1207.159    1299.229    -321.451
  H     1207.200    1300.519    -320.273
  H     1208.067    1299.033    -319.971

 6  7  8  9  10  11  12  13  14  15  16  26  30  31  32  33  35 0
 6-311+G(2d,p)
 ****
 37  38 0
 6-311+G(2d,p)
 ****
 1  2  3  4  5  17  18  19  20  21  22  23  24  25 0
 3-21G
 ****
 27  28  29  34  36  39  40  41  42  43  44  45  46 0
 3-21G
 ****


