%nproc=1
%NoSave
%Mem=1900MB
#P OB98/GEN NMR

erre ene a

0 1
  C      266.582     -37.090     206.222
  O      265.289     -37.613     205.980
  H      267.302     -37.909     206.285
  H      266.859     -36.441     205.386
  H      266.598     -36.505     207.145
  P      264.555     -38.348     207.203
  C      263.136     -40.169     206.018
  O      263.153     -38.889     206.630
  C      262.150     -40.189     204.850
  O      260.866     -39.691     205.319
  C      262.577     -39.332     203.649
  O      262.217     -40.018     202.447
  C      261.711     -38.091     203.783
  O      261.500     -37.428     202.543
  C      260.442     -38.677     204.391
  N      257.362     -34.716     203.569
  C      257.770     -35.722     202.768
  N      258.553     -36.773     203.085
  C      258.863     -36.761     204.390
  C      258.513     -35.806     205.333
  C      257.738     -34.729     204.870
  N      257.372     -33.667     205.663
  N      259.071     -36.117     206.560
  C      259.761     -37.217     206.356
  N      259.667     -37.645     205.060
  O      264.129     -37.115     208.135
  O      265.379     -39.349     207.940
  H      260.904     -37.972     201.991
  H      264.859     -36.901     208.745
  H      257.432     -35.672     201.733
  H      260.368     -37.729     207.093
  H      259.791     -39.143     203.641
  H      262.190     -37.384     204.473
  H      263.646     -39.093     203.632
  H      261.997     -41.231     204.544
  H      262.823     -40.914     206.758
  H      256.908     -32.888     205.218
  H      257.737     -33.608     206.599
  H      264.144     -40.419     205.672
  P      263.400     -40.683     201.592
  C      262.704     -40.711     199.080
  O      262.760     -41.415     200.319
  O      263.882     -41.896     202.513
  O      264.524     -39.744     201.284
  H      264.841     -42.048     202.403
  H      262.252     -41.333     198.336
  H      263.695     -40.450     198.773
  H      262.123     -39.821     199.201

 6  7  8  9  10  11  12  13  14  15  25  28  32  33  34  35 0
 6-311+G(2d,p)
 ****
 36  39  40 0
 6-311+G(2d,p)
 ****
 1  2  3  4  5  16  17  18  19  20  21  22  23  24 0
 3-21G
 ****
 26  27  29  30  31  37  38  41  42  43  44  45  46  47 0
 3-21G
 ****
 48 0
 3-21G
 ****


