%nproc=1
%NoSave
%Mem=1900MB
#P OB98/GEN NMR

erre ene a

0 1
  C      768.943      13.957     387.652
  O      770.200      14.566     387.872
  P      771.071      14.977     386.586
  C      773.154      13.683     387.448
  O      772.627      14.922     386.998
  C      774.656      13.803     387.733
  O      775.387      13.918     386.485
  C      775.030      15.036     388.584
  O      776.149      14.709     389.429
  C      775.506      16.034     387.558
  O      776.374      17.008     388.142
  C      776.186      15.112     386.542
  N      778.461      18.741     383.851
  C      778.784      18.237     385.098
  N      779.800      18.855     385.748
  N      778.175      17.219     385.649
  C      777.169      16.723     384.891
  C      776.770      17.121     383.635
  C      777.441      18.252     383.037
  O      777.190      18.764     381.946
  N      775.736      16.347     383.156
  C      775.492      15.493     384.143
  N      776.305      15.705     385.228
  O      770.780      16.548     386.442
  O      770.717      14.251     385.334
  H      777.078      16.514     388.606
  H      770.178      16.703     385.685
  H      778.953      19.536     383.467
  H      774.715      14.733     384.134
  H      777.188      14.822     386.871
  H      774.650      16.554     387.110
  H      780.266      19.682     385.400
  H      774.205      15.420     389.200
  H      780.035      18.536     386.679
  H      774.996      12.878     388.221
  H      773.003      12.925     386.678
  H      772.631      13.368     388.358
  P      775.818      14.505     390.983
  C      777.090      16.533     392.038
  O      777.066      15.140     391.780
  O      775.986      12.933     391.200
  O      774.467      14.999     391.391
  H      775.450      12.633     391.958
  H      777.077      16.690     393.114
  H      776.242      17.051     391.578
  H      778.025      16.945     391.635
  H      768.482      13.741     388.593
  H      769.078      13.048     387.104
  H      768.318      14.621     387.092

 3  4  5  6  7  8  9  10  11  12  23  26  30  31 0
 6-311+G(2d,p)
 ****
 33  35  36  37  38 0
 6-311+G(2d,p)
 ****
 1  2  13  14  15  16  17  18  19  20  21  22  24  25 0
 3-21G
 ****
 27  28  29  32  34  39  40  41  42  43  44  45  46  47  48  49 0
 3-21G
 ****


