%nproc=1
%NoSave
%Mem=1900MB
#P OB98/GEN NMR

erre ene a

0 1
  C      146.045    -335.690    -474.368
  O      146.578    -336.831    -475.011
  H      144.981    -335.857    -474.184
  H      146.155    -334.807    -475.002
  H      146.545    -335.523    -473.410
  P      148.132    -336.829    -475.394
  C      148.633    -339.252    -474.656
  O      148.502    -338.349    -475.747
  C      148.812    -340.674    -475.175
  O      149.705    -340.688    -476.305
  C      149.399    -341.638    -474.145
  O      148.387    -342.096    -473.263
  C      149.932    -342.727    -475.062
  O      148.843    -343.547    -475.528
  C      150.508    -341.900    -476.222
  N      155.216    -343.574    -475.375
  C      154.022    -344.267    -475.413
  N      154.089    -345.588    -475.143
  N      152.865    -343.710    -475.670
  C      152.947    -342.373    -475.851
  C      154.066    -341.575    -475.823
  C      155.348    -342.209    -475.591
  O      156.432    -341.637    -475.567
  N      153.748    -340.251    -475.984
  C      152.438    -340.254    -476.149
  N      151.902    -341.517    -476.061
  O      149.061    -336.198    -474.401
  O      148.182    -336.097    -476.815
  H      149.243    -344.289    -476.014
  H      148.337    -335.140    -476.713
  H      156.071    -344.057    -475.152
  H      151.833    -339.375    -476.336
  H      150.424    -342.416    -477.185
  H      150.649    -343.387    -474.574
  H      154.884    -345.996    -474.667
  H      150.242    -341.195    -473.606
  H      153.219    -346.103    -475.114
  H      147.837    -341.027    -475.532
  H      147.722    -339.177    -474.053
  H      149.490    -338.976    -474.035
  P      148.687    -342.312    -471.701
  C      146.139    -342.744    -471.698
  O      147.400    -343.081    -471.133
  O      149.051    -341.075    -470.953
  O      149.809    -343.445    -471.661
  H      150.732    -343.091    -471.710
  H      145.372    -343.327    -471.232
  H      146.153    -342.948    -472.748
  H      145.943    -341.704    -471.539

 6  7  8  9  10  11  12  13  14  15  26  29  33  34 0
 6-311+G(2d,p)
 ****
 36  38  39  40  41 0
 6-311+G(2d,p)
 ****
 1  2  3  4  5  16  17  18  19  20  21  22  23  24  25 0
 3-21G
 ****
 27  28  30  31  32  35  37  42  43  44  45  46  47 0
 3-21G
 ****
 48  49 0
 3-21G
 ****


