%nproc=1
%NoSave
%Mem=1900MB
#P OB98/GEN NMR

erre ene a

0 1
  C      120.754     411.389     298.420
  O      121.016     412.002     299.673
  P      121.828     411.135     300.763
  C      119.729     409.841     301.594
  O      120.782     410.743     301.916
  C      118.937     409.444     302.846
  O      117.760     408.691     302.441
  C      119.727     408.564     303.836
  O      119.287     408.932     305.149
  C      119.250     407.162     303.463
  O      119.512     406.183     304.455
  C      117.785     407.444     303.179
  N      116.324     402.536     303.223
  C      116.875     403.322     304.184
  N      117.228     404.636     304.102
  C      116.949     405.121     302.879
  C      116.405     404.434     301.789
  C      116.083     403.080     302.002
  N      115.533     402.278     301.019
  N      116.291     405.269     300.701
  C      116.761     406.426     301.106
  N      117.146     406.396     302.410
  O      122.760     412.233     301.473
  O      122.629     409.999     300.203
  H      119.296     405.301     304.112
  H      123.640     411.878     301.672
  H      117.044     402.837     305.141
  H      116.852     407.315     300.493
  H      117.201     407.602     304.103
  H      119.770     406.837     302.550
  H      120.814     408.688     303.775
  H      118.591     410.352     303.343
  H      120.153     408.936     301.151
  H      115.530     401.286     301.203
  H      115.554     402.636     300.070
  H      119.072     410.298     300.841
  P      120.375     409.150     306.299
  C      119.128     407.082     307.198
  O      119.837     408.265     307.538
  O      120.020     410.636     306.787
  O      121.816     408.959     305.893
  H      119.070     410.729     306.982
  H      118.907     406.547     308.116
  H      119.733     406.456     306.542
  H      118.181     407.345     306.709
  H      120.213     412.069     297.796
  H      120.173     410.504     298.571
  H      121.679     411.132     297.948

 3  4  5  6  7  8  9  10  11  12  22  25  29  30  31  32 0
 6-311+G(2d,p)
 ****
 33  36  37 0
 6-311+G(2d,p)
 ****
 1  2  13  14  15  16  17  18  19  20  21  23  24  26 0
 3-21G
 ****
 27  28  34  35  38  39  40  41  42  43  44  45  46  47  48 0
 3-21G
 ****


