%nproc=1
%NoSave
%Mem=1900MB
#P OB98/GEN NMR

erre ene a

0 1
  C        9.772      30.658      72.414
  O       10.777      31.362      73.164
  P       12.324      31.139      72.795
  C       12.551      29.152      74.470
  O       12.778      29.644      73.160
  C       13.517      28.007      74.811
  O       14.861      28.529      75.016
  C       13.145      27.217      76.073
  O       13.563      25.862      75.861
  C       14.012      27.870      77.135
  O       14.196      27.059      78.285
  C       15.292      28.113      76.328
  N       16.195      29.102      76.918
  C       17.328      28.637      77.577
  O       17.593      27.450      77.751
  N       18.165      29.604      78.074
  C       17.965      30.952      78.016
  O       18.737      31.765      78.508
  C       16.737      31.383      77.334
  C       15.925      30.454      76.826
  O       13.063      32.002      73.926
  O       12.735      31.613      71.439
  H       15.017      27.353      78.721
  H       13.767      32.542      73.522
  H       18.999      29.286      78.543
  H       16.543      32.444      77.261
  H       15.019      30.750      76.307
  H       15.827      27.166      76.198
  H       13.546      28.807      77.457
  H       12.077      27.253      76.304
  H       13.569      27.338      73.943
  H       11.524      28.783      74.543
  H       12.673      29.972      75.186
  P       12.486      24.808      75.301
  C       12.210      23.399      77.487
  O       11.637      24.287      76.554
  O       13.448      23.567      74.967
  O       11.709      25.286      74.119
  H       14.084      23.385      75.677
  H       13.246      23.669      77.713
  H       12.178      22.381      77.093
  H       11.630      23.437      78.412
  H        8.803      30.918      72.785
  H        9.923      29.604      72.518
  H        9.843      30.929      71.381

 3  4  5  6  7  8  9  10  11  12  13  23  28  29  30  31  32 0
 6-311+G(2d,p)
 ****
 33  34 0
 6-311+G(2d,p)
 ****
 1  2  14  15  16  17  18  19  20  21  22  24  25  26 0
 3-21G
 ****
 27  35  36  37  38  39  40  41  42  43  44  45 0
 3-21G
 ****


