%nproc=1
%NoSave
%Mem=1900MB
#P OB98/GEN NMR

erre ene a

0 1
  C       -5.389    -140.171     103.565
  O       -5.560    -140.224     104.963
  P       -6.915    -139.697     105.640
  C       -6.022    -137.298     105.923
  O       -6.494    -138.468     106.585
  C       -6.100    -136.097     106.861
  O       -7.454    -135.896     107.341
  C       -5.273    -136.245     108.131
  O       -3.870    -136.289     107.989
  C       -5.848    -135.133     108.991
  O       -5.286    -133.866     108.650
  C       -7.346    -135.184     108.598
  N       -8.164    -135.798     109.642
  C       -9.413    -135.224     109.853
  O       -9.836    -134.259     109.220
  N      -10.163    -135.781     110.855
  C       -9.777    -136.799     111.675
  O      -10.483    -137.219     112.582
  C       -8.440    -137.353     111.415
  C       -7.704    -136.838     110.426
  O       -7.738    -140.742     106.311
  O       -7.663    -138.954     104.433
  H       -5.583    -133.645     107.746
  H       -7.168    -138.213     104.042
  H      -11.067    -135.373     111.033
  H       -8.107    -138.173     112.040
  H       -6.714    -137.228     110.217
  H       -7.728    -134.171     108.419
  H       -5.650    -135.298     110.055
  H       -5.549    -137.194     108.608
  H       -5.822    -135.203     106.299
  H       -6.650    -137.108     105.048
  H       -4.998    -137.464     105.573
  P       -2.957    -137.449     108.612
  C       -2.652    -136.335     110.933
  O       -2.035    -136.806     109.754
  O       -2.306    -138.381     107.646
  O       -4.031    -138.269     109.483
  H       -3.771    -139.208     109.502
  H       -1.886    -135.893     111.576
  H       -3.124    -137.161     111.473
  H       -3.395    -135.569     110.698
  H       -4.428    -140.565     103.308
  H       -5.458    -139.155     103.236
  H       -6.151    -140.752     103.090

 3  4  5  6  7  8  9  10  11  12  13  23  28  29  30  31  32 0
 6-311+G(2d,p)
 ****
 33  34 0
 6-311+G(2d,p)
 ****
 1  2  14  15  16  17  18  19  20  21  22  24  25  26  27 0
 3-21G
 ****
 35  36  37  38  39  40  41  42  43  44  45 0
 3-21G
 ****


