%nproc=1
%NoSave
%Mem=1900MB
#P OB98/GEN NMR

erre ene a

0 1
  C      793.852     137.366     122.131
  O      792.752     138.266     122.099
  P      793.067     139.819     121.871
  C      791.879     141.722     120.561
  O      792.013     140.324     120.773
  C      790.456     142.184     120.868
  O      789.539     141.572     119.950
  C      789.968     141.800     122.258
  O      790.439     142.686     123.258
  C      788.460     141.923     122.081
  O      788.068     143.316     122.217
  C      788.257     141.461     120.630
  N      786.028     138.033     117.635
  C      786.364     139.356     117.382
  N      786.087     139.816     116.145
  N      786.908     140.141     118.263
  C      787.173     139.527     119.443
  C      786.888     138.233     119.813
  C      786.237     137.377     118.850
  O      785.861     136.227     119.042
  N      787.320     137.979     121.095
  C      787.894     139.106     121.480
  N      787.797     140.090     120.521
  O      794.450     139.786     121.060
  O      793.165     140.643     123.115
  H      788.236     143.564     123.147
  H      794.945     140.626     121.203
  H      785.631     137.457     116.922
  H      788.382     139.248     122.431
  H      787.550     142.103     120.093
  H      787.890     141.372     122.822
  H      785.775     139.209     115.385
  H      790.218     140.754     122.498
  H      786.344     140.769     115.927
  H      790.415     143.276     120.726
  H      792.100     141.946     119.500
  H      792.601     142.253     121.185
  P      790.189     142.265     124.785
  C      791.197     143.039     127.054
  O      791.289     143.054     125.635
  O      790.688     140.739     124.827
  O      788.765     142.418     125.243
  H      790.227     140.257     125.546
  H      790.851     142.070     127.417
  H      790.523     143.822     127.391
  H      792.200     143.230     127.472
  H      793.494     136.370     122.289
  H      794.513     137.638     122.928
  H      794.378     137.412     121.200

 3  4  5  6  7  8  9  10  11  12  23  26  30  31  33  0
 6-311+G(2d,p)
 ****
 35  36  37  38 0
 6-311+G(2d,p)
 ****
 1  2  13  14  15  16  17  18  19  20  21  22  24  25  27  28  29 0
 3-21G
 ****
 32  34  39  40  41  42  43  44  45  46  47  48  49 0
 3-21G
 ****


