%nproc=1
%NoSave
%Mem=1900MB
#P OB98/GEN NMR

erre ene a

0 1
  C      -67.200     163.201     -86.929
  O      -66.001     163.536     -86.259
  H      -66.977     162.707     -87.878
  H      -67.773     162.515     -86.301
  H      -67.799     164.100     -87.106
  P      -65.025     164.567     -87.009
  C      -63.203     162.768     -87.430
  O      -64.122     163.686     -88.000
  C      -61.949     162.672     -88.293
  O      -62.297     162.251     -89.629
  C      -61.190     163.984     -88.461
  O      -60.374     164.270     -87.336
  C      -60.351     163.668     -89.692
  O      -59.213     162.872     -89.314
  C      -61.323     162.831     -90.536
  N      -61.910     163.617     -95.557
  C      -61.183     162.714     -94.864
  N      -61.094     162.553     -93.528
  C      -61.876     163.441     -92.891
  C      -62.691     164.406     -93.461
  C      -62.688     164.484     -94.862
  N      -63.387     165.459     -95.559
  N      -63.332     165.142     -92.483
  C      -62.897     164.640     -91.346
  N      -62.022     163.606     -91.543
  O      -64.007     165.000     -85.848
  O      -65.699     165.748     -87.623
  H      -59.564     162.048     -88.928
  H      -64.302     165.847     -85.463
  H      -60.590     162.030     -95.463
  H      -63.182     164.992     -90.365
  H      -60.820     162.000     -91.043
  H      -59.968     164.563     -90.191
  H      -61.865     164.814     -88.693
  H      -61.300     161.899     -87.861
  H      -63.670     161.780     -87.359
  H      -62.957     165.707     -96.446
  H      -63.721     166.225     -94.985
  H      -62.944     163.112     -86.422
  P      -60.183     165.808     -86.923
  C      -58.545     165.894     -88.924
  O      -59.583     166.555     -88.211
  O      -58.949     165.754     -85.905
  O      -61.372     166.452     -86.298
  H      -59.207     166.157     -85.054
  H      -58.240     166.499     -89.753
  H      -58.903     164.952     -89.283
  H      -57.711     165.735     -88.273

 6  7  8  9  10  11  12  13  14  15  25  28  32  33  34  35 0
 6-311+G(2d,p)
 ****
 36  39  40 0
 6-311+G(2d,p)
 ****
 1  2  3  4  5  16  17  18  19  20  21  22  23  24 0
 3-21G
 ****
 26  27  29  30  31  37  38  41  42  43  44  45  46  47  48 0
 3-21G
 ****


