%nproc=1
%NoSave
%Mem=1900MB
#P OB98/GEN NMR

erre ene a

0 1
  C      -42.613      78.962     -64.581
  O      -42.322      80.025     -63.697
  H      -43.694      78.803     -64.595
  H      -42.128      78.047     -64.233
  H      -42.279      79.199     -65.595
  P      -40.809      80.558     -63.685
  C      -40.688      79.817     -61.200
  O      -40.069      79.801     -62.477
  C      -40.498      78.471     -60.505
  O      -41.050      77.406     -61.312
  C      -39.042      78.099     -60.249
  O      -38.539      78.712     -59.069
  C      -39.165      76.594     -60.075
  O      -39.687      76.295     -58.763
  C      -40.199      76.237     -61.151
  N      -39.866      72.670     -64.738
  C      -40.552      72.661     -63.537
  N      -41.240      71.536     -63.246
  N      -40.559      73.661     -62.694
  C      -39.817      74.716     -63.111
  C      -39.097      74.845     -64.279
  C      -39.105      73.735     -65.204
  O      -38.534      73.700     -66.291
  N      -38.483      76.066     -64.355
  C      -38.813      76.668     -63.230
  N      -39.617      75.889     -62.437
  O      -40.948      82.062     -63.145
  O      -40.105      80.518     -64.999
  H      -40.588      76.665     -58.729
  H      -40.288      82.621     -63.598
  H      -39.884      71.869     -65.345
  H      -38.500      77.663     -62.945
  H      -40.841      75.401     -60.852
  H      -38.207      76.081     -60.162
  H      -41.235      70.712     -63.827
  H      -38.411      78.316     -61.119
  H      -41.776      71.518     -62.388
  H      -41.062      78.495     -59.564
  H      -41.759      80.012     -61.321
  H      -40.245      80.618     -60.599
  P      -37.314      79.740     -59.229
  C      -35.807      78.149     -57.835
  O      -35.986      78.857     -59.056
  O      -37.374      80.586     -57.871
  O      -37.375      80.610     -60.437
  H      -36.940      81.451     -57.997
  H      -34.883      77.610     -57.867
  H      -36.616      77.462     -57.699
  H      -35.787      78.842     -57.020

 6  7  8  9  10  11  12  13  14  15  26  29  33  34 0
 6-311+G(2d,p)
 ****
 36  38  39  40  41 0
 6-311+G(2d,p)
 ****
 1  2  3  4  5  16  17  18  19  20  21  22  23  24  25 0
 3-21G
 ****
 27  28  30  31  32  35  37  42  43  44  45  46  47 0
 3-21G
 ****
 48  49 0
 3-21G
 ****


