%nproc=1
%NoSave
%Mem=1900MB
#P OB98/GEN NMR

erre ene a

0 1
  C       84.822     848.381    -491.986
  O       85.326     849.417    -491.164
  H       85.029     847.401    -491.541
  H       83.740     848.512    -492.083
  H       85.277     848.441    -492.981
  P       86.895     849.345    -490.807
  C       86.577     848.485    -488.377
  O       87.054     848.196    -489.691
  C       86.649     847.231    -487.511
  O       85.896     846.169    -488.118
  C       88.054     846.669    -487.314
  O       88.791     847.391    -486.320
  C       87.732     845.257    -486.843
  O       87.403     845.280    -485.432
  C       86.484     844.910    -487.666
  N       86.234     840.183    -489.638
  C       85.866     840.666    -488.439
  N       85.975     841.941    -487.975
  C       86.506     842.745    -488.914
  C       86.929     842.381    -490.183
  C       86.782     841.032    -490.548
  N       87.178     840.532    -491.775
  N       87.411     843.468    -490.871
  C       87.292     844.476    -490.024
  N       86.748     844.081    -488.832
  O       87.155     850.702    -489.990
  O       87.803     849.225    -491.985
  H       87.034     844.406    -485.221
  H       88.048     851.030    -490.213
  H       85.430     839.956    -487.754
  H       87.566     845.503    -490.245
  H       85.722     844.410    -487.064
  H       88.558     844.560    -486.970
  H       88.599     846.617    -488.270
  H       86.193     847.470    -486.538
  H       85.554     848.828    -488.433
  H       86.871     839.613    -492.039
  H       87.585     841.175    -492.441
  H       87.202     849.283    -487.946
  P       90.369     847.092    -486.214
  C       89.830     846.030    -483.913
  O       90.503     845.895    -485.162
  O       90.908     848.360    -485.389
  O       91.082     846.922    -487.508
  H       91.864     848.511    -485.602
  H       90.008     845.160    -483.316
  H       88.779     846.136    -484.084
  H       90.198     846.895    -483.401

 6  7  8  9  10  11  12  13  14  15  25  28  32  33  34  35 0
 6-311+G(2d,p)
 ****
 36  39  40 0
 6-311+G(2d,p)
 ****
 1  2  3  4  5  16  17  18  19  20  21  22  23  24 0
 3-21G
 ****
 26  27  29  30  31  37  38  41  42  43  44  45  46  47  48 0
 3-21G
 ****


