%nproc=1
%NoSave
%Mem=1900MB
#P OB98/GEN NMR

erre ene a

0 1
  C      686.209     -72.667    -737.443
  O      686.891     -73.127    -738.589
  H      686.195     -71.574    -737.457
  H      686.723     -73.000    -736.540
  H      685.178     -73.033    -737.437
  P      686.897     -74.708    -738.862
  C      685.021     -74.448    -740.641
  O      685.443     -75.079    -739.439
  C      684.047     -75.349    -741.400
  O      684.747     -76.557    -741.804
  C      682.826     -75.764    -740.578
  O      681.681     -75.784    -741.439
  C      683.151     -77.184    -740.142
  O      681.981     -77.958    -739.866
  C      683.991     -77.685    -741.324
  N      684.859     -78.789    -740.927
  C      684.244     -80.027    -740.718
  O      683.027     -80.146    -740.859
  N      685.010     -81.087    -740.296
  C      686.266     -80.905    -740.021
  N      686.965     -81.984    -739.577
  C      686.942     -79.601    -740.165
  C      686.191     -78.598    -740.621
  O      686.874     -75.339    -737.393
  O      688.037     -75.210    -739.684
  H      681.346     -77.821    -740.607
  H      687.356     -76.189    -737.366
  H      687.983     -79.491    -739.900
  H      686.596     -77.599    -740.751
  H      683.339     -78.022    -742.142
  H      683.755     -77.153    -739.230
  H      682.632     -75.104    -739.729
  H      683.742     -74.836    -742.320
  H      686.461     -82.857    -739.482
  H      685.896     -74.259    -741.269
  H      687.935     -81.943    -739.298
  H      684.549     -73.488    -740.399
  P      680.705     -74.516    -741.360
  C      680.364     -74.457    -743.939
  O      680.765     -73.749    -742.772
  O      681.461     -73.523    -740.360
  O      679.333     -74.847    -740.882
  H      680.989     -73.488    -739.507
  H      680.459     -73.819    -744.793
  H      679.345     -74.766    -743.836
  H      680.987     -75.318    -744.066

 6  7  8  9  10  11  12  13  14  15  16  26  30  31  32  33  35 0
 6-311+G(2d,p)
 ****
 37  38 0
 6-311+G(2d,p)
 ****
 1  2  3  4  5  17  18  19  20  21  22  23  24  25 0
 3-21G
 ****
 27  28  29  34  36  39  40  41  42  43  44  45  46 0
 3-21G
 ****


