%nproc=1
%NoSave
%Mem=1900MB
#P OB98/GEN NMR

erre ene a

0 1
  C      769.408    -892.760     249.755
  O      768.138    -892.210     249.481
  P      767.107    -893.010     248.544
  C      765.293    -893.320     250.351
  O      766.232    -893.970     249.492
  C      763.869    -893.730     249.971
  O      763.718    -895.180     250.038
  C      762.803    -893.180     250.898
  O      762.554    -891.820     250.626
  C      761.627    -894.110     250.600
  O      760.935    -893.700     249.404
  C      762.347    -895.460     250.368
  N      759.267    -898.270     253.288
  C      758.991    -897.380     252.305
  N      759.875    -896.650     251.602
  C      761.146    -896.870     252.019
  C      761.550    -897.730     253.028
  C      760.548    -898.480     253.668
  N      760.794    -899.430     254.637
  N      762.916    -897.670     253.193
  C      763.316    -896.800     252.280
  N      762.295    -896.340     251.522
  O      767.711    -893.690     247.358
  O      766.046    -891.900     248.091
  H      760.173    -894.310     249.290
  H      766.062    -891.810     247.112
  H      757.959    -897.250     252.045
  H      764.366    -896.460     252.149
  H      761.926    -896.000     249.515
  H      760.899    -894.130     251.406
  H      763.107    -893.320     251.951
  H      763.682    -893.430     248.932
  H      765.409    -892.240     250.226
  H      760.016    -900.000     254.922
  H      761.742    -899.800     254.711
  H      765.500    -893.580     251.395
  P      762.561    -890.740     251.802
  C      764.587    -889.500     250.849
  O      764.076    -890.220     251.956
  O      761.914    -891.180     253.076
  O      761.810    -889.480     251.177
  H      761.319    -889.010     251.895
  H      764.865    -890.200     250.050
  H      765.473    -888.950     251.172
  H      763.856    -888.790     250.471
  H      769.955    -892.095     250.390
  H      769.942    -892.898     248.838
  H      769.290    -893.704     250.244

 3  4  5  6  7  8  9  10  11  12  22  25  29  30  31  32 0
 6-311+G(2d,p)
 ****
 33  36  37 0
 6-311+G(2d,p)
 ****
 1  2  13  14  15  16  17  18  19  20  21  23  24  26 0
 3-21G
 ****
 27  28  34  35  38  39  40  41  42  43  44  45  46  47  48 0
 3-21G
 ****


