%nproc=1
%NoSave
%Mem=1900MB
#P OB98/GEN NMR

erre ene a

0 1
  C     -659.705    -822.897    -652.496
  O     -660.529    -822.352    -651.453
  P     -661.643    -821.258    -651.865
  C     -663.746    -822.132    -650.651
  O     -663.078    -821.963    -651.896
  C     -665.078    -822.904    -650.842
  O     -666.096    -822.007    -651.354
  C     -664.943    -824.083    -651.804
  O     -665.464    -825.306    -651.278
  C     -665.622    -823.578    -653.086
  O     -666.111    -824.636    -653.919
  C     -666.687    -822.604    -652.539
  N     -667.058    -821.607    -653.546
  C     -668.078    -821.971    -654.423
  O     -668.590    -823.092    -654.444
  N     -668.417    -821.027    -655.364
  C     -667.847    -819.808    -655.530
  O     -668.201    -819.023    -656.400
  C     -666.738    -819.482    -654.609
  C     -666.410    -820.398    -653.672
  O     -661.323    -820.408    -653.030
  O     -661.743    -820.366    -650.513
  H     -666.677    -825.219    -653.380
  H     -661.842    -819.431    -650.794
  H     -669.180    -821.272    -655.985
  H     -666.233    -818.551    -654.730
  H     -665.581    -820.206    -652.989
  H     -667.589    -823.134    -652.249
  H     -664.879    -823.016    -653.650
  H     -663.898    -824.312    -652.032
  H     -665.407    -823.247    -649.849
  H     -663.953    -821.166    -650.202
  H     -663.091    -822.671    -649.943
  P     -664.662    -826.684    -651.207
  C     -664.252    -826.887    -648.669
  O     -663.695    -826.627    -649.935
  O     -663.988    -827.110    -652.498
  O     -665.779    -827.763    -650.823
  H     -665.638    -828.585    -651.291
  H     -663.585    -826.450    -647.891
  H     -664.331    -827.955    -648.472
  H     -665.244    -826.411    -648.550
  H     -659.019    -823.603    -652.076
  H     -659.159    -822.107    -652.969
  H     -660.323    -823.387    -653.220

 3  4  5  6  7  8  9  10  11  12  13  23  28  29  30  31  32 0
 6-311+G(2d,p)
 ****
 33  34 0
 6-311+G(2d,p)
 ****
 1  2  14  15  16  17  18  19  20  21  22  24  25  26  27 0
 3-21G
 ****
 35  36  37  38  39  40  41  42  43  44  45 0
 3-21G
 ****


