%nproc=1
%NoSave
%Mem=1900MB
#P OB98/GEN NMR

erre ene a

0 1
  C      -73.520      24.486      96.101
  O      -73.552      23.128      96.491
  H      -74.518      24.778      95.762
  H      -72.814      24.624      95.277
  H      -73.234      25.118      96.946
  P      -72.188      22.509      97.064
  C      -71.256      21.788      94.745
  O      -71.108      22.629      95.883
  C      -70.064      21.969      93.809
  O      -70.050      23.324      93.306
  C      -68.708      21.765      94.477
  O      -68.388      20.391      94.618
  C      -67.790      22.506      93.513
  O      -67.427      21.686      92.395
  C      -68.672      23.671      93.043
  N      -65.562      27.709      92.941
  C      -65.707      26.658      92.103
  N      -66.578      25.629      92.192
  C      -67.355      25.764      93.279
  C      -67.319      26.773      94.225
  C      -66.369      27.788      94.024
  N      -66.197      28.838      94.896
  N      -68.246      26.539      95.222
  C      -68.839      25.412      94.879
  N      -68.336      24.913      93.710
  O      -72.506      20.940      97.128
  O      -71.750      23.047      98.386
  H      -66.876      22.240      91.809
  H      -72.811      20.705      98.025
  H      -65.033      26.639      91.250
  H      -69.621      24.920      95.442
  H      -68.584      23.847      91.964
  H      -66.866      22.814      94.004
  H      -68.684      22.271      95.450
  H      -70.184      21.289      92.955
  H      -72.176      22.057      94.213
  H      -71.329      20.747      95.081
  H      -65.478      29.518      94.701
  H      -66.720      28.849      95.762
  P      -67.496      19.940      95.870
  C      -65.375      20.345      94.421
  O      -66.026      20.549      95.666
  O      -67.294      18.371      95.629
  O      -68.102      20.227      97.203
  H      -67.909      17.858      96.187
  H      -64.411      20.808      94.443
  H      -65.961      20.777      93.637
  H      -65.263      19.296      94.245

 6  7  8  9  10  11  12  13  14  15  25  28  32  33  34  35 0
 6-311+G(2d,p)
 ****
 36  37  40 0
 6-311+G(2d,p)
 ****
 1  2  3  4  5  16  17  18  19  20  21  22  23  24 0
 3-21G
 ****
 26  27  29  30  31  38  39 41  42  43  44  45  46  47  48 0
 3-21G
 ****


