%nproc=1
%NoSave
%Mem=1900MB
#P OB98/GEN NMR

erre ene a

0 1
  C      242.188     283.282     206.327
  O      242.976     282.896     205.222
  H      242.813     283.261     207.223
  H      241.363     282.578     206.457
  H      241.794     284.293     206.198
  P      242.411     283.146     203.745
  C      243.358     285.531     204.030
  O      242.285     284.732     203.549
  C      243.635     286.701     203.079
  O      244.274     286.191     201.879
  C      242.337     287.384     202.634
  O      242.535     288.757     202.313
  C      241.978     286.628     201.365
  O      241.125     287.368     200.493
  C      243.359     286.341     200.781
  N      241.487     283.962     196.680
  C      241.029     285.102     197.313
  N      239.930     285.686     196.781
  N      241.586     285.608     198.383
  C      242.629     284.881     198.846
  C      243.159     283.728     198.320
  C      242.557     283.191     197.115
  O      242.907     282.174     196.527
  N      244.213     283.269     199.072
  C      244.318     284.144     200.053
  N      243.394     285.156     199.946
  O      240.877     282.689     203.846
  O      243.128     282.423     202.646
  H      241.584     288.201     200.271
  H      240.531     282.467     202.963
  H      241.040     283.633     195.842
  H      245.051     284.101     200.851
  H      243.705     287.184     200.171
  H      241.437     285.719     201.647
  H      239.366     285.218     196.085
  H      241.544     287.302     203.374
  H      239.408     286.317     197.395
  H      244.340     287.402     203.540
  H      244.232     284.880     204.105
  H      243.139     285.895     205.034
  P      241.468     289.830     202.837
  C      242.953     291.420     204.345
  O      241.949     290.436     204.236
  O      240.199     288.941     203.224
  O      241.126     290.899     201.849
  H      239.439     289.161     202.651
  H      243.101     291.666     205.376
  H      242.654     292.296     203.808
  H      243.867     291.045     203.934

 6  7  8  9  10  11  12  13  14  15  26  29  33  34 0
 6-311+G(2d,p)
 ****
 36  38  39  40  41 0
 6-311+G(2d,p)
 ****
 1  2  3  4  5  16  17  18  19  20  21  22  23  24  25 0
 3-21G
 ****
 27  28  30  31  32  35  37  42  43  44  45  46  47 0
 3-21G
 ****
 48  49 0
 3-21G
 ****


