%nproc=1
%NoSave
%Mem=1900MB
#P OB98/GEN NMR

erre ene a

0 1
  C      147.510    -105.237     260.261
  O      146.883    -104.502     261.314
  P      147.080    -102.906     261.268
  C      149.193    -102.871     262.767
  O      148.644    -102.595     261.488
  C      150.724    -102.880     262.734
  O      151.281    -102.897     264.078
  C      151.319    -104.078     261.980
  O      152.513    -103.616     261.333
  C      151.707    -105.020     263.111
  O      152.650    -105.998     262.683
  C      152.216    -104.004     264.134
  N      155.408    -105.350     267.806
  C      155.665    -104.943     266.509
  N      156.966    -104.828     266.157
  N      154.730    -104.670     265.640
  C      153.473    -104.788     266.148
  C      153.098    -105.166     267.415
  C      154.146    -105.500     268.362
  O      153.975    -105.864     269.521
  N      151.724    -105.142     267.558
  C      151.291    -104.813     266.353
  N      152.303    -104.532     265.486
  O      146.392    -102.415     262.627
  O      146.463    -102.259     260.068
  H      152.597    -106.749     263.315
  H      145.497    -102.065     262.447
  H      156.171    -105.565     268.432
  H      150.251    -104.731     266.074
  H      153.214    -103.627     263.885
  H      150.819    -105.543     263.488
  H      157.740    -104.975     266.793
  H      150.645    -104.544     261.257
  H      157.177    -104.495     265.228
  H      151.060    -101.946     262.256
  H      148.846    -103.849     263.119
  H      148.814    -102.136     263.489
  P      152.381    -103.073     259.834
  C      152.909    -105.301     258.606
  O      151.941    -104.309     258.915
  O      153.911    -102.824     259.403
  O      151.574    -101.828     259.683
  H      153.969    -102.009     258.865
  H      152.396    -106.248     258.412
  H      153.613    -105.444     259.434
  H      153.464    -105.002     257.709
  H      147.315    -106.281     260.390
  H      148.566    -105.065     260.286
  H      147.118    -104.915     259.319

 3  4  5  6  7  8  9  10  11  12  23  26  30  31 0
 6-311+G(2d,p)
 ****
 33  35  36  37  38 0
 6-311+G(2d,p)
 ****
 1  2  13  14  15  16  17  18  19  20  21  22  24  25 0
 3-21G
 ****
 27  28  29  32  34  39  40  41  42  43  44  45  46  47  48  49 0
 3-21G
 ****


