%nproc=1
%NoSave
%Mem=1900MB
#P OB98/GEN NMR

erre ene a

0 1
  C     -819.715    -715.901    -603.666
  O     -819.180    -717.063    -603.070
  P     -817.745    -717.631    -603.530
  C     -816.506    -717.708    -605.772
  O     -817.772    -717.813    -605.116
  C     -816.521    -718.536    -607.061
  O     -817.425    -717.945    -608.048
  C     -815.171    -718.614    -607.757
  O     -814.282    -719.481    -607.092
  C     -815.588    -719.123    -609.128
  O     -815.809    -720.532    -609.127
  C     -816.916    -718.376    -609.333
  N     -816.811    -717.229    -610.239
  C     -816.513    -717.501    -611.576
  O     -816.302    -718.670    -611.934
  N     -816.465    -716.466    -612.461
  C     -816.570    -715.243    -612.067
  N     -816.595    -714.276    -613.005
  C     -816.738    -714.905    -610.636
  C     -816.850    -715.924    -609.794
  O     -817.254    -718.815    -602.774
  O     -816.768    -716.375    -603.319
  H     -815.971    -716.690    -602.829
  H     -815.008    -720.939    -608.731
  H     -816.743    -713.862    -610.332
  H     -816.994    -715.760    -608.722
  H     -817.698    -719.060    -609.744
  H     -814.840    -718.902    -609.890
  H     -814.747    -717.619    -607.849
  H     -816.882    -719.569    -606.835
  H     -816.504    -714.558    -613.957
  H     -815.754    -718.097    -605.103
  H     -816.974    -713.355    -612.835
  H     -816.304    -716.658    -605.988
  P     -812.795    -719.596    -607.716
  C     -811.869    -719.616    -610.147
  O     -812.990    -719.806    -609.302
  O     -812.298    -721.043    -607.231
  O     -811.839    -718.532    -607.309
  H     -811.354    -721.037    -607.053
  H     -812.078    -720.101    -611.109
  H     -810.968    -720.068    -609.702
  H     -811.708    -718.526    -610.328
  H     -820.668    -715.684    -603.231
  H     -819.831    -716.061    -604.718
  H     -819.052    -715.078    -603.501

 3  4  5  6  7  8  9  10  11  12  13  24  27  28  29  30  32 0
 6-311+G(2d,p)
 ****
 34  35 0
 6-311+G(2d,p)
 ****
 1  2  14  15  16  17  18  19  20  21  22  23  25  26 0
 3-21G
 ****
 31  33  36  37  38  39  40  41  42  43  44  45  46 0
 3-21G
 ****


