%nproc=1
%NoSave
%Mem=1900MB
#P OB98/GEN NMR

erre ene a

0 1
  C       20.295     195.237     -72.137
  O       21.710     195.176     -71.944
  P       22.217     195.133     -70.422
  C       23.299     192.819     -70.877
  O       22.469     193.599     -70.028
  C       24.551     192.352     -70.132
  O       25.362     193.451     -69.680
  C       24.241     191.525     -68.892
  O       23.926     190.194     -69.261
  C       25.543     191.639     -68.110
  O       26.511     190.670     -68.560
  C       26.013     193.064     -68.444
  N       27.102     194.593     -63.736
  C       27.469     193.438     -64.398
  N       28.261     192.582     -63.719
  N       27.097     193.152     -65.619
  C       26.309     194.101     -66.177
  C       25.901     195.295     -65.632
  C       26.317     195.600     -64.279
  O       26.035     196.618     -63.659
  N       25.158     196.027     -66.525
  C       25.015     195.216     -67.558
  N       25.748     194.063     -67.424
  O       20.912     195.538     -69.588
  O       23.354     196.060     -70.148
  H       26.664     190.793     -69.514
  H       21.030     196.426     -69.200
  H       27.409     194.759     -62.793
  H       24.419     195.427     -68.433
  H       27.094     193.096     -68.627
  H       25.393     191.451     -67.043
  H       28.587     192.740     -62.779
  H       23.421     191.986     -68.325
  H       28.548     191.733     -64.191
  H       25.147     191.756     -70.834
  H       23.587     193.400     -71.755
  H       22.720     191.963     -71.244
  P       22.874     189.394     -68.354
  C       20.735     189.380     -69.821
  O       21.415     189.939     -68.716
  O       23.151     189.971     -66.884
  O       23.031     187.910     -68.388
  H       23.167     189.236     -66.244
  H       19.659     189.436     -69.638
  H       21.014     188.336     -69.983
  H       20.971     189.959     -70.718
  H       20.079     195.261     -73.185
  H       19.909     196.121     -71.673
  H       19.838     194.375     -71.698

 3  4  5  6  7  8  9  10  11  12  23  26  30  31 0
 6-311+G(2d,p)
 ****
 33  35  36  37  38 0
 6-311+G(2d,p)
 ****
 1  2  13  14  15  16  17  18  19  20  21  22  24  25 0
 3-21G
 ****
 27  28  29  32  34  39  40  41  42  43  44  45  46  47  48  49 0
 3-21G
 ****


