%nproc=1
%NoSave
%Mem=1900MB
#P OB98/GEN NMR

erre ene a

0 1
  C      306.246    -896.720     -30.038
  O      307.012    -896.620     -28.841
  P      306.915    -895.270     -27.970
  C      306.049    -896.410     -25.745
  O      305.876    -895.460     -26.786
  C      305.117    -896.060     -24.580
  O      305.596    -894.870     -23.887
  C      303.682    -895.780     -25.002
  O      302.910    -896.960     -25.086
  C      303.208    -894.810     -23.931
  O      302.883    -895.530     -22.724
  C      304.477    -893.960     -23.712
  N      304.684    -892.770     -24.599
  C      303.765    -891.740     -24.620
  O      302.742    -891.710     -23.915
  N      304.031    -890.690     -25.438
  C      305.190    -890.490     -26.126
  O      305.416    -889.490     -26.816
  C      306.211    -891.520     -25.976
  C      305.902    -892.620     -25.244
  O      306.173    -894.240     -28.962
  O      308.225    -894.740     -27.501
  H      302.618    -894.880     -22.059
  H      306.768    -893.500     -29.196
  H      303.338    -889.960     -25.515
  H      307.174    -891.390     -26.461
  H      306.648    -893.410     -25.125
  H      304.529    -893.580     -22.686
  H      302.300    -894.300     -24.227
  H      303.681    -895.230     -25.968
  H      305.141    -896.880     -23.856
  H      307.085    -896.420     -25.404
  H      305.820    -897.410     -26.113
  P      302.083    -897.290     -26.410
  C      303.636    -899.320     -26.590
  O      303.042    -898.260     -27.287
  O      301.528    -896.100     -27.160
  O      300.950    -898.300     -25.919
  H      300.112    -897.800     -25.748
  H      304.129    -900.000     -27.306
  H      302.888    -899.900     -26.033
  H      304.404    -898.920     -25.895
  H      306.421    -897.671     -30.495
  H      306.535    -895.941     -30.713
  H      305.206    -896.622     -29.805

 3  4  5  6  7  8  9  10  11  12  13  23  28  29  30  31  32 0
 6-311+G(2d,p)
 ****
 33  34 0
 6-311+G(2d,p)
 ****
 1  2  14  15  16  17  18  19  20  21  22  24  25  26  27 0
 3-21G
 ****
 35  36  37  38  39  40  41  42  43  44  45 0
 3-21G
 ****


