%nproc=1
%NoSave
%Mem=1900MB
#P OB98/GEN NMR

erre ene a

0 1
  C      505.933    -516.173     268.283
  O      505.717    -514.839     267.867
  H      506.113    -516.180     269.362
  H      506.816    -516.576     267.779
  H      505.062    -516.792     268.065
  P      505.275    -514.598     266.344
  C      502.991    -514.105     265.201
  O      503.775    -514.017     266.381
  C      501.567    -514.551     265.543
  O      501.586    -515.971     265.876
  C      500.953    -513.797     266.722
  O      499.567    -513.572     266.448
  C      501.094    -514.773     267.884
  O      500.123    -514.550     268.909
  C      500.973    -516.124     267.164
  N      501.602    -517.195     267.935
  C      500.816    -517.792     268.939
  O      499.661    -517.405     269.133
  N      501.376    -518.771     269.717
  C      502.629    -519.065     269.586
  N      503.134    -520.023     270.403
  C      503.515    -518.412     268.585
  C      502.935    -517.502     267.800
  O      505.073    -516.081     265.778
  O      506.227    -513.798     265.517
  H      499.236    -514.533     268.495
  H      505.291    -516.134     264.828
  H      504.562    -518.674     268.529
  H      503.505    -516.973     267.050
  H      499.910    -516.375     267.001
  H      502.089    -514.668     268.330
  H      501.444    -512.844     266.929
  H      500.948    -514.444     264.635
  H      502.507    -520.438     271.090
  H      503.448    -514.847     264.531
  H      504.112    -520.303     270.425
  H      502.979    -513.130     264.698
  P      499.181    -512.161     265.809
  C      497.550    -511.362     263.941
  O      497.851    -512.342     264.922
  O      500.328    -511.919     264.719
  O      499.116    -511.036     266.810
  H      500.938    -511.217     265.025
  H      496.641    -511.625     263.441
  H      498.347    -511.313     263.229
  H      497.435    -510.409     264.413

 6  7  8  9  10  11  12  13  14  15  16  26  30  31  32  33  35 0
 6-311+G(2d,p)
 ****
 37  38 0
 6-311+G(2d,p)
 ****
 1  2  3  4  5  17  18  19  20  21  22  23  24  25 0
 3-21G
 ****
 27  28  29  34  36  39  40  41  42  43  44  45  46 0
 3-21G
 ****


