%nproc=1
%NoSave
%Mem=1900MB
#P OB98/GEN NMR

erre ene a

0 1
  C       98.605     -19.467    -137.461
  O       97.879     -18.457    -136.784
  P       96.835     -18.928    -135.659
  C       94.866     -17.955    -137.053
  O       95.429     -19.094    -136.409
  C       93.624     -18.352    -137.847
  O       94.002     -19.114    -139.006
  C       92.654     -19.232    -137.076
  O       91.895     -18.459    -136.166
  C       91.834     -19.839    -138.208
  O       90.743     -18.978    -138.574
  C       92.867     -19.937    -139.356
  N       93.267     -21.308    -139.630
  C       92.374     -22.060    -140.403
  O       91.316     -21.558    -140.788
  N       92.685     -23.367    -140.682
  C       93.788     -23.876    -140.227
  N       94.047     -25.175    -140.539
  C       94.745     -23.124    -139.392
  C       94.423     -21.858    -139.129
  O       96.635     -17.610    -134.775
  O       97.282     -20.098    -134.844
  H       90.180     -18.912    -137.775
  H       96.375     -17.841    -133.863
  H       95.649     -23.596    -139.038
  H       95.069     -21.234    -138.524
  H       92.452     -19.513    -140.279
  H       91.399     -20.801    -137.927
  H       93.194     -20.026    -136.544
  H       93.125     -17.434    -138.185
  H       93.368     -25.668    -141.107
  H       95.603     -17.528    -137.741
  H       94.887     -25.657    -140.252
  H       94.620     -17.205    -136.295
  P       91.309     -19.198    -134.872
  C       88.936     -18.919    -135.806
  O       89.919     -19.831    -135.356
  O       90.820     -17.964    -133.973
  O       92.231     -20.105    -134.129
  H       90.527     -18.285    -133.100
  H       88.110     -19.482    -136.247
  H       89.353     -18.249    -136.562
  H       88.554     -18.338    -134.962
  H       99.259     -19.016    -138.178
  H       97.923     -20.121    -137.962
  H       99.182     -20.026    -136.754

 3  4  5  6  7  8  9  10  11  12  13  21  23  27  28  29  30  32 0
 6-311+G(2d,p)
 ****
 34  35 0
 6-311+G(2d,p)
 ****
 1  2  14  15  16  17  18  19  20  22  24  25  26 0
 3-21G
 ****
 31  33  36  37  38  39  40  41  42  43  44  45  46 0
 3-21G
 ****


