%nproc=1
%NoSave
%Mem=1900MB
#P OB98/GEN NMR

erre ene a

0 1
  C     -449.351    -415.321     327.939
  O     -450.228    -414.247     328.205
  H     -449.268    -415.932     328.843
  H     -448.360    -414.932     327.685
  H     -449.721    -415.951     327.124
  P     -450.875    -413.460     326.967
  C     -449.265    -411.459     327.205
  O     -450.622    -411.895     327.198
  C     -449.142    -409.985     327.604
  O     -449.799    -409.149     326.626
  C     -449.823    -409.685     328.944
  O     -449.036    -409.948     330.092
  C     -450.122    -408.194     328.813
  O     -448.980    -407.410     329.204
  C     -450.391    -408.030     327.313
  N     -454.460    -405.030     326.544
  C     -453.176    -404.678     326.923
  N     -452.970    -403.370     327.188
  N     -452.198    -405.537     327.049
  C     -452.581    -406.822     326.844
  C     -453.817    -407.298     326.479
  C     -454.881    -406.331     326.290
  O     -456.033    -406.592     325.956
  N     -453.817    -408.665     326.362
  C     -452.604    -409.023     326.728
  N     -451.809    -407.937     327.006
  O     -452.456    -413.597     327.223
  O     -450.503    -413.980     325.612
  H     -449.135    -406.486     328.935
  H     -452.934    -413.538     326.377
  H     -455.164    -404.324     326.432
  H     -452.249    -410.049     326.783
  H     -449.915    -407.124     326.913
  H     -450.952    -407.889     329.450
  H     -453.718    -402.689     327.218
  H     -450.776    -410.218     329.013
  H     -452.138    -403.118     327.718
  H     -448.084    -409.701     327.612
  H     -448.884    -411.602     326.196
  H     -448.670    -412.084     327.874
  P     -449.545    -411.018     331.176
  C     -449.193    -409.475     333.240
  O     -448.820    -410.652     332.561
  O     -448.810    -412.361     330.707
  O     -451.019    -411.185     331.255
  H     -449.414    -412.901     330.160
  H     -448.617    -409.383     334.137
  H     -450.233    -409.520     333.487
  H     -449.012    -408.628     332.612

 6  7  8  9  10  11  12  13  14  15  26  29  33  34 0
 6-311+G(2d,p)
 ****
 36  38  39  40  41 0
 6-311+G(2d,p)
 ****
 1  2  3  4  5  16  17  18  19  20  21  22  23  24  25 0
 3-21G
 ****
 27  28  30  31  32  35  37  42  43  44  45  46  47 0
 3-21G
 ****
 48  49 0
 3-21G
 ****


