%nproc=1
%NoSave
%Mem=1900MB
#P OB98/GEN NMR

erre ene a

0 1
  C       26.569     -71.914    -103.858
  O       26.888     -70.606    -103.427
  H       25.509     -72.096    -103.671
  H       27.160     -72.647    -103.302
  H       26.761     -72.017    -104.930
  P       28.407     -70.137    -103.634
  C       28.447     -68.813    -101.389
  O       28.568     -68.775    -102.802
  C       28.194     -67.406    -100.836
  O       29.350     -66.570    -101.139
  C       26.970     -66.708    -101.449
  O       26.445     -65.796    -100.469
  C       27.600     -65.924    -102.589
  O       26.708     -64.955    -103.090
  C       28.864     -65.434    -101.888
  N       31.183     -61.285    -103.767
  C       30.240     -61.432    -102.813
  N       29.679     -62.570    -102.358
  C       30.205     -63.640    -102.978
  C       31.178     -63.648    -103.962
  C       31.675     -62.396    -104.364
  N       32.630     -62.242    -105.342
  N       31.459     -64.942    -104.361
  C       30.669     -65.700    -103.627
  N       29.889     -64.957    -102.785
  O       28.441     -69.659    -105.160
  O       29.443     -71.173    -103.349
  H       27.160     -64.365    -103.730
  H       28.759     -70.385    -105.728
  H       29.885     -60.511    -102.357
  H       30.614     -66.781    -103.673
  H       28.648     -64.632    -101.173
  H       27.848     -66.585    -103.425
  H       26.184     -67.401    -101.758
  H       28.120     -67.458     -99.744
  H       29.377     -69.214    -100.972
  H       27.616     -69.468    -101.110
  H       32.921     -61.308    -105.583
  H       32.992     -63.060    -105.807
  P       24.882     -65.859    -100.100
  C       24.213     -63.531     -99.112
  O       24.606     -64.872     -98.866
  O       24.763     -67.299     -99.403
  O       23.938     -65.749    -101.251
  H       23.860     -67.648     -99.528
  H       24.074     -63.023     -98.180
  H       23.296     -63.523     -99.663
  H       24.973     -63.035     -99.678

 6  7  8  9  10  11  12  13  14  15  25  28  32  33  34  35 0
 6-311+G(2d,p)
 ****
 36  37  40 0
 6-311+G(2d,p)
 ****
 1  2  3  4  5  16  17  18  19  20  21  22  23  24 0
 3-21G
 ****
 26  27  29  30  31  38  39 41  42  43  44  45  46  47  48 0
 3-21G
 ****


