%nproc=1
%NoSave
%Mem=1900MB
#P OB98/GEN NMR

erre ene a

0 1
  C     1273.029    1253.183      -0.667
  O     1274.141    1253.652       0.073
  P     1275.547    1253.804      -0.705
  C     1275.171    1256.365      -0.778
  O     1275.452    1255.182      -1.511
  C     1276.344    1257.342      -0.874
  O     1276.792    1257.489      -2.253
  C     1276.054    1258.757      -0.399
  O     1276.132    1258.889       1.012
  C     1277.186    1259.541      -1.071
  O     1278.404    1259.371      -0.308
  C     1277.301    1258.827      -2.443
  N     1277.119    1262.977      -5.411
  C     1277.935    1262.630      -4.385
  N     1277.896    1261.532      -3.633
  C     1276.909    1260.706      -4.001
  C     1275.948    1260.956      -5.003
  C     1276.099    1262.140      -5.720
  N     1275.272    1262.484      -6.792
  N     1275.052    1259.907      -5.074
  C     1275.451    1259.053      -4.155
  N     1276.558    1259.490      -3.482
  O     1275.448    1252.687      -1.844
  O     1276.757    1253.632       0.167
  H     1278.262    1259.829       0.519
  H     1276.346    1252.434      -2.131
  H     1278.707    1263.367      -4.146
  H     1274.974    1258.094      -3.944
  H     1278.336    1258.729      -2.760
  H     1276.976    1260.602      -1.136
  H     1275.087    1259.117      -0.793
  H     1277.193    1256.927      -0.307
  H     1275.006    1256.133       0.269
  H     1275.547    1263.250      -7.378
  H     1274.650    1261.769      -7.139
  H     1274.271    1256.846      -1.186
  P     1275.394    1260.178       1.668
  C     1274.100    1259.258       3.728
  O     1274.071    1259.588       2.350
  O     1274.881    1260.974       0.388
  O     1276.284    1260.997       2.539
  H     1274.767    1261.928       0.596
  H     1273.061    1259.174       4.069
  H     1274.630    1260.009       4.320
  H     1274.571    1258.275       3.850
  H     1272.172    1253.132      -0.029
  H     1273.243    1252.209      -1.054
  H     1272.831    1253.853      -1.477

 3  4  5  6  7  8  9  10  11  12  22  25  29  30  31  32 0
 6-311+G(2d,p)
 ****
 33  36  37 0
 6-311+G(2d,p)
 ****
 1  2  13  14  15  16  17  18  19  20  21  23  24  26 0
 3-21G
 ****
 27  28  34  35  38  39  40  41  42  43  44  45  46  47  48 0
 3-21G
 ****


