%nproc=1
%NoSave
%Mem=1900MB
#P OB98/GEN NMR

erre ene a

0 1
  C      805.323    -507.526     161.271
  O      805.317    -508.872     160.766
  P      803.918    -509.567     160.404
  C      804.917    -510.947     158.418
  O      804.214    -510.955     159.647
  C      805.644    -512.278     158.209
  O      806.804    -512.350     159.075
  C      804.827    -513.507     158.553
  O      803.878    -513.816     157.535
  C      805.902    -514.565     158.709
  O      806.300    -515.098     157.443
  C      807.046    -513.741     159.342
  N      807.212    -514.004     160.772
  C      807.724    -515.238     161.134
  O      807.979    -516.129     160.318
  N      807.897    -515.446     162.480
  C      807.546    -514.584     163.482
  O      807.701    -514.831     164.667
  C      806.937    -513.320     163.039
  C      806.787    -513.094     161.734
  O      803.383    -508.645     159.210
  O      802.915    -509.626     161.515
  H      805.525    -515.573     157.074
  H      802.405    -508.658     159.192
  H      808.288    -516.327     162.760
  H      806.619    -512.609     163.789
  H      806.339    -512.163     161.382
  H      808.008    -513.981     158.847
  H      805.580    -515.412     159.318
  H      804.322    -513.364     159.517
  H      805.995    -512.317     157.159
  H      805.646    -510.126     158.421
  H      804.201    -510.772     157.594
  P      802.336    -513.935     157.987
  C      801.512    -513.279     155.589
  O      801.538    -514.233     156.632
  O      802.005    -512.415     158.347
  O      802.129    -514.902     159.109
  H      802.488    -511.786     157.772
  H      802.453    -512.732     155.527
  H      800.682    -512.592     155.747
  H      801.352    -513.818     154.640
  H      806.331    -507.220     161.459
  H      804.762    -507.484     162.181
  H      804.880    -506.872     160.549

 3  4  5  6  7  8  9  10  11  12  13  23  28  29  30  31  32 0
 6-311+G(2d,p)
 ****
 33  34 0
 6-311+G(2d,p)
 ****
 1  2  14  15  16  17  18  19  20  21  22  24  25  26 0
 3-21G
 ****
 27  35  36  37  38  39  40  41  42  43  44  45 0
 3-21G
 ****


