%nproc=1
%NoSave
%Mem=1900MB
#P OB98/GEN NMR

erre ene a

0 1
  C      119.326      95.612     -22.493
  O      119.196      94.628     -23.498
  H      118.646      95.368     -21.672
  H      119.064      96.598     -22.890
  H      120.351      95.626     -22.112
  P      120.036      94.866     -24.848
  C      121.352      92.644     -24.464
  O      121.402      94.058     -24.585
  C      122.171      92.196     -23.259
  O      121.686      92.824     -22.047
  C      122.119      90.696     -22.977
  O      122.939      89.934     -23.846
  C      122.634      90.677     -21.549
  O      124.057      90.894     -21.545
  C      121.881      91.886     -20.953
  N      120.594      91.521     -20.353
  C      120.645      90.805     -19.150
  O      121.725      90.507     -18.637
  N      119.461      90.415     -18.565
  C      118.334      90.726     -19.117
  N      117.196      90.308     -18.492
  C      118.232      91.488     -20.377
  C      119.386      91.848     -20.933
  O      120.503      96.393     -24.728
  O      119.339      94.527     -26.121
  H      124.223      91.666     -22.119
  H      121.153      96.604     -25.444
  H      117.268      91.713     -20.809
  H      119.393      92.413     -21.859
  H      122.492      92.391     -20.193
  H      122.454      89.733     -21.038
  H      121.089      90.321     -22.989
  H      123.207      92.535     -23.408
  H      117.299      89.738     -17.663
  H      121.760      92.209     -25.382
  H      116.279      90.369     -18.918
  H      120.316      92.316     -24.340
  P      122.337      88.560     -24.420
  C      123.169      88.577     -26.890
  O      122.082      88.782     -25.992
  O      120.861      88.532     -23.813
  O      123.114      87.332     -24.065
  H      120.577      87.616     -23.616
  H      122.843      88.762     -27.892
  H      123.514      87.567     -26.808
  H      123.966      89.247     -26.644

 6  7  8  9  10  11  12  13  14  15  16  26  30  31  32  33  35 0
 6-311+G(2d,p)
 ****
 37  38 0
 6-311+G(2d,p)
 ****
 1  2  3  4  5  17  18  19  20  21  22  23  24  25 0
 3-21G
 ****
 27  28  29  34  36  39  40  41  42  43  44  45  46 0
 3-21G
 ****


