%nproc=1
%NoSave
%Mem=1900MB
#P OB98/GEN NMR

erre ene a

0 1
  C     -585.491     116.147    -541.073
  O     -585.343     115.859    -542.457
  P     -586.495     116.230    -543.517
  C     -588.636     115.004    -544.286
  O     -587.656     115.151    -543.276
  C     -589.405     113.685    -544.115
  O     -588.519     112.588    -544.466
  C     -589.899     113.425    -542.674
  O     -591.136     112.745    -542.768
  C     -588.825     112.521    -542.103
  O     -589.286     111.766    -540.987
  C     -588.466     111.690    -543.331
  N     -587.153     111.064    -543.229
  C     -586.929     110.203    -542.150
  O     -587.809     110.003    -541.299
  N     -585.711     109.593    -542.032
  C     -584.762     109.863    -542.885
  N     -583.584     109.175    -542.768
  C     -584.921     110.842    -543.976
  C     -586.129     111.381    -544.099
  O     -586.029     116.349    -544.928
  O     -587.155     117.570    -542.931
  H     -590.022     111.196    -541.281
  H     -586.669     118.389    -543.203
  H     -584.093     111.065    -544.631
  H     -586.346     112.095    -544.881
  H     -589.235     110.920    -543.512
  H     -587.968     113.131    -541.757
  H     -590.040     114.361    -542.105
  H     -590.243     113.677    -544.810
  H     -583.584     108.398    -542.123
  H     -588.140     114.988    -545.262
  H     -582.942     109.095    -543.554
  H     -589.321     115.858    -544.277
  P     -592.077     112.655    -541.451
  C     -592.097     111.249    -539.271
  O     -591.367     111.676    -540.409
  O     -593.298     111.748    -541.986
  O     -592.601     113.954    -540.926
  H     -594.086     111.962    -541.460
  H     -591.460     110.589    -538.676
  H     -592.992     110.702    -539.565
  H     -592.377     112.124    -538.655
  H     -584.618     115.822    -540.546
  H     -586.349     115.634    -540.692
  H     -585.617     117.201    -540.940

 3  4  5  6  7  8  9  10  11  12  13  23  27  28  29  30  32 0
 6-311+G(2d,p)
 ****
 34  35 0
 6-311+G(2d,p)
 ****
 1  2  14  15  16  17  18  19  20  21  22  24  25  26 0
 3-21G
 ****
 31  33  36  37  38  39  40  41  42  43  44  45  46 0
 3-21G
 ****


