%nproc=1
%NoSave
%Mem=1900MB
#P OB98/GEN NMR

erre ene a

0 1
  C      -91.428      -9.950      80.329
  O      -90.846      -9.089      81.305
  P      -90.661      -9.638      82.798
  C      -91.963      -9.422      85.092
  O      -91.843      -9.097      83.724
  C      -93.177      -8.686      85.683
  O      -92.897      -7.275      85.807
  C      -94.436      -8.818      84.830
  O      -95.165      -9.993      85.136
  C      -95.177      -7.540      85.167
  O      -95.827      -7.660      86.445
  C      -94.011      -6.526      85.245
  N      -93.563      -5.882      83.992
  C      -94.462      -5.129      83.239
  O      -95.639      -4.955      83.540
  N      -93.959      -4.553      82.102
  C      -92.646      -4.505      81.734
  O      -92.245      -3.923      80.735
  C      -91.717      -5.187      82.641
  C      -92.206      -5.840      83.697
  O      -89.371      -8.862      83.331
  O      -90.500     -11.124      82.893
  H      -96.492      -8.365      86.365
  H      -88.644      -9.489      83.505
  H      -94.611      -4.065      81.507
  H      -90.660      -5.135      82.414
  H      -91.525      -6.350      84.375
  H      -94.250      -5.717      85.946
  H      -95.965      -7.339      84.444
  H      -94.176      -8.786      83.768
  H      -93.366      -9.084      86.689
  H      -91.058      -9.145      85.639
  H      -92.084     -10.503      85.204
  P      -95.120     -11.242      84.136
  C      -96.561     -12.032      82.166
  O      -96.263     -10.962      83.044
  O      -95.151     -12.592      84.771
  O      -93.773     -11.003      83.297
  H      -93.027     -11.516      83.683
  H      -97.452     -11.772      81.588
  H      -96.760     -12.947      82.731
  H      -95.726     -12.192      81.479
  H      -91.482      -9.440      79.390
  H      -92.413     -10.228      80.641
  H      -90.826     -10.828      80.224

 3  4  5  6  7  8  9  10  11  12  13  23  28  29  30  31  32 0
 6-311+G(2d,p)
 ****
 33  34 0
 6-311+G(2d,p)
 ****
 1  2  14  15  16  17  18  19  20  21  22  24  25  26  27 0
 3-21G
 ****
 35  36  37  38  39  40  41  42  43  44  45 0
 3-21G
 ****


