%nproc=1
%NoSave
%Mem=1900MB
#P OB98/GEN NMR

erre ene a

0 1
  C     -113.057     -30.455     -63.602
  O     -113.406     -29.084     -63.695
  P     -114.917     -28.719     -64.100
  C     -114.176     -27.871     -66.449
  O     -114.988     -28.762     -65.702
  C     -114.389     -28.083     -67.951
  O     -113.958     -29.426     -68.292
  C     -115.840     -27.939     -68.421
  O     -115.797     -27.417     -69.755
  C     -116.334     -29.373     -68.452
  O     -117.467     -29.547     -69.297
  C     -115.076     -30.096     -68.916
  N     -115.724     -34.832     -70.571
  C     -115.895     -33.631     -71.235
  N     -116.229     -33.712     -72.541
  N     -115.750     -32.461     -70.672
  C     -115.400     -32.540     -69.366
  C     -115.238     -33.662     -68.590
  C     -115.364     -34.950     -69.234
  O     -115.137     -36.037     -68.707
  N     -114.969     -33.339     -67.286
  C     -114.888     -32.024     -67.293
  N     -115.094     -31.495     -68.540
  O     -115.009     -27.159     -63.758
  O     -115.981     -29.520     -63.419
  H     -117.703     -30.497     -69.290
  H     -115.367     -27.016     -62.861
  H     -115.831     -35.703     -71.062
  H     -114.678     -31.406     -66.435
  H     -114.940     -30.047     -70.005
  H     -116.619     -29.687     -67.440
  H     -116.327     -34.579     -73.046
  H     -116.447     -27.294     -67.779
  H     -116.329     -32.848     -73.060
  H     -113.738     -27.385     -68.491
  H     -113.125     -28.069     -66.214
  H     -114.405     -26.839     -66.166
  P     -117.061     -26.579     -70.274
  C     -117.747     -28.361     -72.023
  O     -118.116     -27.618     -70.878
  O     -116.488     -25.838     -71.575
  O     -117.601     -25.588     -69.295
  H     -116.928     -24.975     -71.681
  H     -118.359     -29.265     -72.069
  H     -116.691     -28.652     -71.992
  H     -117.932     -27.764     -72.920
  H     -112.027     -30.543     -63.326
  H     -113.214     -30.928     -64.549
  H     -113.667     -30.929     -62.861

 3  4  5  6  7  8  9  10  11  12  23  26  30  31 0
 6-311+G(2d,p)
 ****
 33  35  36  37  38 0
 6-311+G(2d,p)
 ****
 1  2  13  14  15  16  17  18  19  20  21  22  24  25 0
 3-21G
 ****
 27  28  29  32  34  39  40  41  42  43  44  45  46  47  48  49 0
 3-21G
 ****


