%nproc=1
%NoSave
%Mem=1900MB
#P OB98/GEN NMR

erre ene a

0 1
  C     -175.020       6.719    -286.384
  O     -175.872       5.913    -285.558
  P     -176.584       6.610    -284.305
  C     -176.300       4.300    -283.141
  O     -177.107       5.455    -283.325
  C     -177.127       3.033    -283.370
  O     -177.365       2.797    -284.776
  C     -176.464       1.767    -282.842
  O     -176.691       1.597    -281.449
  C     -177.212       0.698    -283.623
  O     -178.492       0.448    -283.009
  C     -177.394       1.363    -284.992
  N     -175.877      -2.183    -288.264
  C     -177.002      -2.132    -287.464
  N     -177.853      -3.177    -287.558
  N     -177.269      -1.146    -286.648
  C     -176.341      -0.163    -286.675
  C     -175.185      -0.099    -287.420
  C     -174.892      -1.204    -288.307
  O     -173.904      -1.309    -289.026
  N     -174.492       1.054    -287.168
  C     -175.234       1.699    -286.288
  N     -176.359       0.993    -285.945
  O     -177.942       7.177    -284.938
  O     -175.779       7.692    -283.665
  H     -178.850      -0.359    -283.426
  H     -178.239       7.959    -284.435
  H     -175.716      -2.970    -288.868
  H     -175.002       2.673    -285.875
  H     -178.359       1.119    -285.452
  H     -176.679      -0.256    -283.639
  H     -177.733      -3.945    -288.200
  H     -175.397       1.743    -283.095
  H     -178.700      -3.142    -287.004
  H     -178.097       3.165    -282.872
  H     -175.875       4.290    -282.134
  H     -175.447       4.353    -283.822
  P     -175.542       0.885    -280.586
  C     -177.249      -0.418    -279.126
  O     -176.205       0.533    -279.173
  O     -174.545       2.093    -280.258
  O     -174.846      -0.237    -281.279
  H     -173.631       1.761    -280.193
  H     -177.465      -0.650    -278.081
  H     -176.958      -1.339    -279.639
  H     -178.151      -0.007    -279.589
  H     -174.619       6.120    -287.175
  H     -174.219       7.113    -285.793
  H     -175.586       7.526    -286.800

 3  4  5  6  7  8  9  10  11  12  23  26  30  31 0
 6-311+G(2d,p)
 ****
 33  35  36  37  38 0
 6-311+G(2d,p)
 ****
 1  2  13  14  15  16  17  18  19  20  21  22  24  25 0
 3-21G
 ****
 27  28  29  32  34  39  40  41  42  43  44  45  46  47  48  49 0
 3-21G
 ****


