%nproc=1
%NoSave
%Mem=1900MB
#P OB98/GEN NMR

erre ene a

0 1
  C      163.358     -28.886    -248.239
  O      163.243     -28.504    -249.599
  P      163.908     -27.109    -250.031
  C      165.173     -28.246    -252.000
  O      165.264     -27.490    -250.795
  C      166.243     -29.333    -252.028
  O      166.125     -30.171    -250.865
  C      166.141     -30.269    -253.220
  O      166.658     -29.655    -254.383
  C      166.958     -31.461    -252.736
  O      168.355     -31.278    -253.017
  C      166.695     -31.453    -251.212
  N      165.840     -32.548    -250.785
  C      166.244     -33.828    -251.187
  O      167.256     -33.968    -251.874
  N      165.467     -34.904    -250.833
  C      164.386     -34.716    -250.144
  N      163.658     -35.820    -249.816
  C      163.914     -33.382    -249.720
  C      164.679     -32.352    -250.076
  O      164.417     -26.503    -248.644
  O      162.994     -26.180    -250.757
  H      168.790     -32.113    -252.750
  H      164.461     -25.529    -248.684
  H      163.004     -33.281    -249.147
  H      164.408     -31.338    -249.809
  H      167.642     -31.528    -250.662
  H      166.654     -32.391    -253.228
  H      165.100     -30.577    -253.382
  H      167.227     -28.846    -252.003
  H      164.002     -36.718    -250.128
  H      165.323     -27.579    -252.855
  H      162.814     -35.780    -249.264
  H      164.172     -28.683    -252.069
  P      165.626     -28.901    -255.348
  C      167.062     -26.812    -255.743
  O      165.909     -27.341    -255.117
  O      164.233     -29.105    -254.580
  O      165.558     -29.360    -256.766
  H      163.500     -28.770    -255.127
  H      167.051     -25.725    -255.638
  H      167.069     -27.065    -256.808
  H      167.961     -27.205    -255.263
  H      162.874     -29.829    -248.091
  H      162.894     -28.146    -247.620
  H      164.392     -28.971    -247.979

 3  4  5  6  7  8  9  10  11  12  13  21  23  27  28  29  30  32 0
 6-311+G(2d,p)
 ****
 34  35 0
 6-311+G(2d,p)
 ****
 1  2  14  15  16  17  18  19  20  22  24  25  26 0
 3-21G
 ****
 31  33  36  37  38  39  40  41  42  43  44  45  46 0
 3-21G
 ****


