%nproc=1
%NoSave
%Mem=1900MB
#P OB98/GEN NMR

erre ene a

0 1
  C      -63.521    -110.503     106.200
  O      -64.537    -110.036     105.335
  H      -63.962    -110.718     107.176
  H      -62.756    -109.734     106.323
  H      -63.070    -111.419     105.806
  P      -64.167    -109.879     103.783
  C      -62.752    -111.747     102.659
  O      -64.008    -111.368     103.199
  C      -62.915    -112.990     101.783
  O      -63.623    -114.006     102.548
  C      -63.713    -112.745     100.496
  O      -63.154    -113.555      99.457
  C      -65.094    -113.268     100.845
  O      -65.872    -113.640      99.715
  C      -64.734    -114.453     101.747
  N      -65.851    -114.879     102.587
  C      -66.240    -116.212     102.507
  O      -65.662    -117.073     101.847
  N      -67.355    -116.546     103.233
  C      -68.109    -115.697     103.988
  O      -69.110    -116.054     104.598
  C      -67.653    -114.301     104.027
  C      -66.565    -113.962     103.333
  O      -62.664    -109.335     103.825
  O      -65.074    -108.996     102.994
  H      -62.655    -108.360     103.851
  H      -66.099    -112.819      99.233
  H      -67.651    -117.507     103.184
  H      -68.234    -113.597     104.607
  H      -66.213    -112.935     103.323
  H      -64.384    -115.299     101.144
  H      -65.651    -112.508     101.403
  H      -63.739    -111.699     100.176
  H      -61.921    -113.393     101.556
  H      -62.060    -111.976     103.475
  H      -62.346    -110.917     102.072
  P      -62.097    -112.859      98.469
  C      -60.614    -110.747      98.923
  O      -61.151    -111.969      99.409
  O      -63.027    -111.798      97.720
  O      -61.401    -113.834      97.580
  H      -63.717    -111.425      98.294
  H      -60.012    -110.295      99.683
  H      -61.413    -110.086      98.660
  H      -60.012    -110.940      98.060

 6  7  8  9  10  11  12  13  14  15  16  27  31  32  33  34  35 0
 6-311+G(2d,p)
 ****
 36  37 0
 6-311+G(2d,p)
 ****
 1  2  3  4  5  17  18  19  20  21  22  23  24  25 0
 3-21G
 ****
 26  28  29  30  38  39  40  41  42  43  44  45 0
 3-21G
 ****


