%nproc=1
%NoSave
%Mem=1900MB
#P OB98/GEN NMR

erre ene a

0 1
  C      -45.048    -366.987    -202.880
  O      -44.376    -366.591    -204.078
  P      -44.685    -367.436    -205.409
  C      -44.864    -365.419    -207.066
  O      -44.130    -366.550    -206.631
  C      -44.398    -364.152    -206.339
  O      -42.973    -363.947    -206.571
  C      -45.128    -362.875    -206.765
  O      -45.285    -362.072    -205.585
  C      -44.149    -362.218    -207.718
  O      -44.378    -360.826    -207.852
  C      -42.818    -362.598    -207.061
  N      -41.682    -362.486    -207.974
  C      -40.726    -361.524    -207.669
  O      -40.843    -360.734    -206.733
  N      -39.647    -361.464    -208.512
  C      -39.478    -362.207    -209.645
  O      -38.490    -362.116    -210.366
  C      -40.576    -363.129    -209.977
  C      -41.612    -363.222    -209.138
  O      -46.273    -367.297    -205.509
  O      -44.171    -368.834    -205.345
  H      -46.606    -366.426    -205.229
  H      -43.587    -360.407    -208.244
  H      -38.927    -360.796    -208.294
  H      -40.504    -363.690    -210.900
  H      -42.446    -363.872    -209.364
  H      -42.627    -361.959    -206.190
  H      -44.232    -362.680    -208.712
  H      -46.108    -363.070    -207.209
  H      -44.529    -364.312    -205.261
  H      -45.931    -365.569    -206.865
  H      -44.756    -365.318    -208.151
  P      -46.765    -361.891    -204.974
  C      -46.256    -361.561    -202.429
  O      -46.624    -360.987    -203.659
  O      -46.999    -363.361    -204.376
  O      -47.809    -361.494    -205.962
  H      -46.246    -363.685    -203.859
  H      -45.986    -360.760    -201.732
  H      -45.392    -362.222    -202.543
  H      -47.095    -362.120    -202.012
  H      -44.753    -366.345    -202.077
  H      -44.788    -367.997    -202.643
  H      -46.106    -366.915    -203.024

 3  4  5  6  7  8  9  10  11  12  13  24  28  29  30  31  32 0
 6-311+G(2d,p)
 ****
 33  34 0
 6-311+G(2d,p)
 ****
 1  2  14  15  16  17  18  19  20  21  22  23  25  26  27 0
 3-21G
 ****
 35  36  37  38  39  40  41  42  43  44  45 0
 3-21G
 ****


