%nproc=1
%NoSave
%Mem=1900MB
#P OB98/GEN NMR

erre ene a

0 1
  C       -7.752     -63.358       6.799
  O       -7.704     -63.948       8.086
  P       -8.941     -63.670       9.075
  C       -7.461     -62.403      10.794
  O       -8.569     -62.347       9.904
  C       -7.344     -61.122      11.621
  O       -7.330     -59.985      10.723
  C       -8.480     -60.920      12.625
  O       -7.927     -60.324      13.799
  C       -9.383     -59.910      11.939
  O      -10.170     -59.182      12.880
  C       -8.356     -59.070      11.163
  N       -8.960     -58.362      10.038
  C       -9.587     -57.145      10.321
  O       -9.681     -56.756      11.485
  N      -10.137     -56.427       9.287
  C      -10.154     -56.933       8.093
  N      -10.708     -56.182       7.103
  C       -9.613     -58.269       7.775
  C       -9.018     -58.911       8.780
  O       -8.800     -64.837      10.160
  O      -10.280     -63.670       8.412
  H      -10.664     -58.487      12.390
  H       -9.676     -65.110      10.494
  H       -9.686     -58.660       6.770
  H       -8.572     -59.887       8.634
  H       -7.881     -58.332      11.825
  H      -10.060     -60.425      11.247
  H       -8.987     -61.853      12.886
  H       -6.377     -61.136      12.140
  H      -11.085     -55.276       7.349
  H       -6.543     -62.519      10.211
  H      -10.766     -56.494       6.143
  H       -7.562     -63.277      11.446
  P       -8.375     -60.922      15.218
  C      -10.105     -59.038      15.443
  O       -9.891     -60.435      15.414
  O       -7.595     -59.953      16.233
  O       -8.080     -62.355      15.509
  H       -7.736     -60.254      17.149
  H      -11.182     -58.849      15.443
  H       -9.663     -58.564      14.564
  H       -9.675     -58.614      16.356
  H       -6.872     -63.624       6.252
  H       -7.803     -62.294       6.896
  H       -8.617     -63.711       6.277

 3  4  5  6  7  8  9  10  11  12  13  21  23  27  28  29  30  32 0
 6-311+G(2d,p)
 ****
 34  35 0
 6-311+G(2d,p)
 ****
 1  2  14  15  16  17  18  19  20  22  24  25  26 0
 3-21G
 ****
 31  33  36  37  38  39  40  41  42  43  44  45  46 0
 3-21G
 ****


