%nproc=1
%NoSave
%Mem=1900MB
#P OB98/GEN NMR

erre ene a

0 1
  C      -95.962      58.231     203.654
  O      -97.016      57.282     203.487
  P      -98.172      57.583     202.418
  C      -99.175      55.233     202.092
  O      -99.364      56.529     202.639
  C      -98.101      54.464     202.873
  O      -98.548      54.196     204.234
  C      -97.767      53.109     202.234
  O      -96.382      52.783     202.440
  C      -98.596      52.138     203.051
  O      -98.095      50.806     202.956
  C      -98.490      52.770     204.437
  N     -100.467      48.823     207.033
  C      -99.348      48.936     206.284
  N      -98.873      50.024     205.642
  C      -99.676      51.081     205.843
  C     -100.844      51.120     206.589
  C     -101.243      49.919     207.198
  N     -102.398      49.798     207.937
  N     -101.403      52.382     206.562
  C     -100.611      53.079     205.774
  N      -99.538      52.348     205.342
  O      -97.721      57.737     201.005
  O      -98.814      58.946     202.967
  H      -98.705      50.228     203.450
  H      -98.996      59.540     202.212
  H      -98.758      48.029     206.183
  H     -100.775      54.104     205.473
  H      -97.528      52.543     204.914
  H      -99.632      52.141     202.692
  H      -97.988      53.043     201.165
  H      -97.202      55.086     202.948
  H      -98.886      55.314     201.043
  H     -102.662      48.871     208.237
  H     -103.057      50.564     207.943
  H     -100.132      54.697     202.099
  P      -95.514      52.526     201.107
  C      -93.136      52.744     202.171
  O      -94.123      51.910     201.608
  O      -95.425      53.718     200.215
  O      -96.282      51.286     200.449
  H      -96.449      50.542     201.052
  H      -92.328      52.120     202.561
  H      -93.547      53.333     202.995
  H      -92.727      53.411     201.407
  H      -95.280      57.879     204.400
  H      -96.373      59.170     203.961
  H      -95.443      58.355     202.726

 3  4  5  6  7  8  9  10  11  12  22  25  29  30  31  32 0
 6-311+G(2d,p)
 ****
 33  36  37 0
 6-311+G(2d,p)
 ****
 1  2  13  14  15  16  17  18  19  20  21  23  24  26 0
 3-21G
 ****
 27  28  34  35  38  39  40  41  42  43  44  45  46  47  48 0
 3-21G
 ****


