%nproc=1
%NoSave
%Mem=1900MB
#P OB98/GEN NMR

erre ene a

0 1
  C     -263.817    -559.235     -34.731
  O     -263.090    -560.457     -34.884
  P     -262.796    -561.355     -33.589
  C     -260.403    -560.441     -33.339
  O     -261.659    -560.637     -32.703
  C     -259.231    -560.965     -32.493
  O     -259.029    -560.138     -31.317
  C     -259.397    -562.414     -32.009
  O     -258.093    -563.010     -32.022
  C     -259.889    -562.217     -30.591
  O     -259.722    -563.390     -29.796
  C     -259.056    -561.011     -30.169
  N     -259.596    -560.331     -28.990
  C     -259.384    -560.942     -27.749
  O     -258.849    -562.048     -27.695
  N     -259.808    -560.284     -26.623
  C     -260.514    -559.200     -26.731
  N     -260.900    -558.574     -25.591
  C     -260.915    -558.633     -28.042
  C     -260.400    -559.229     -29.106
  O     -262.570    -562.805     -33.847
  O     -264.116    -561.141     -32.698
  H     -260.507    -563.976     -29.923
  H     -264.319    -561.968     -32.216
  H     -261.571    -557.773     -28.086
  H     -260.634    -558.882     -30.107
  H     -258.021    -561.295     -29.957
  H     -260.953    -561.968     -30.596
  H     -260.074    -563.005     -32.633
  H     -258.319    -560.885     -33.109
  H     -260.639    -558.986     -24.703
  H     -260.261    -559.370     -33.523
  H     -261.414    -557.695     -25.592
  H     -260.421    -560.925     -34.326
  P     -257.641    -563.852     -33.312
  C     -258.338    -566.228     -32.501
  O     -258.565    -565.157     -33.405
  O     -256.240    -564.479     -32.812
  O     -257.430    -563.075     -34.567
  H     -255.684    -564.672     -33.591
  H     -259.219    -566.882     -32.506
  H     -258.199    -565.860     -31.472
  H     -257.471    -566.794     -32.815
  H     -263.925    -558.763     -35.685
  H     -263.285    -558.584     -34.069
  H     -264.785    -559.444     -34.325

 3  4  5  6  7  8  9  10  11  12  13  23  27  28  29  30  32 0
 6-311+G(2d,p)
 ****
 34  35 0
 6-311+G(2d,p)
 ****
 1  2  14  15  16  17  18  19  20  21  22  24  25  26 0
 3-21G
 ****
 31  33  36  37  38  39  40  41  42  43  44  45  46 0
 3-21G
 ****


