%nproc=1
%NoSave
%Mem=1900MB
#P OB98/GEN NMR

erre ene a

0 1
  C       40.536      60.449     -14.355
  O       40.516      60.952     -13.017
  P       41.612      62.072     -12.667
  C       40.419      63.226     -10.678
  O       41.496      62.403     -11.099
  C       40.465      63.480      -9.167
  O       40.273      62.241      -8.423
  C       41.785      64.090      -8.684
  O       41.467      64.969      -7.597
  C       42.533      62.886      -8.142
  O       43.587      63.274      -7.265
  C       41.375      62.131      -7.494
  N       43.062      58.934      -3.970
  C       42.978      60.312      -3.955
  N       43.352      60.927      -2.813
  N       42.562      61.025      -4.969
  C       42.183      60.272      -6.030
  C       42.204      58.904      -6.162
  C       42.697      58.129      -5.043
  O       42.786      56.908      -5.004
  N       41.709      58.507      -7.384
  C       41.458      59.648      -8.004
  N       41.675      60.740      -7.210
  O       41.034      63.383     -13.380
  O       42.985      61.738     -13.148
  H       43.218      63.924      -6.630
  H       41.497      63.538     -14.224
  H       43.405      58.435      -3.167
  H       41.095      59.737      -9.014
  H       41.068      62.580      -6.540
  H       42.966      62.307      -8.967
  H       43.636      60.435      -1.977
  H       42.347      64.627      -9.454
  H       43.263      61.933      -2.760
  H       39.634      64.147      -8.908
  H       39.467      62.754     -10.931
  H       40.449      64.167     -11.238
  P       41.548      66.546      -7.863
  C       39.664      67.181      -6.207
  O       41.034      67.282      -6.538
  O       40.363      66.797      -8.913
  O       42.855      67.020      -8.410
  H       40.645      67.459      -9.571
  H       39.553      67.297      -5.126
  H       39.244      66.216      -6.502
  H       39.111      67.981      -6.706
  H       39.767      59.714     -14.471
  H       41.488      60.004     -14.555
  H       40.367      61.253     -15.041

 3  4  5  6  7  8  9  10  11  12  23  26  30  31 0
 6-311+G(2d,p)
 ****
 33  35  36  37  38 0
 6-311+G(2d,p)
 ****
 1  2  13  14  15  16  17  18  19  20  21  22  24  25 0
 3-21G
 ****
 27  28  29  32  34  39  40  41  42  43  44  45  46  47  48  49 0
 3-21G
 ****


