%nproc=1
%NoSave
%Mem=1900MB
#P OB98/GEN NMR

erre ene a

0 1
  C      290.497    -118.613      30.753
  O      290.835    -117.685      31.769
  P      292.366    -117.192      31.825
  C      293.599    -118.108      33.946
  O      293.172    -118.337      32.610
  C      292.529    -118.605      34.920
  O      292.115    -119.942      34.570
  C      292.984    -118.667      36.374
  O      292.902    -117.383      36.974
  C      292.008    -119.686      36.955
  O      290.744    -119.071      37.271
  C      291.866    -120.686      35.801
  N      292.850    -125.000      38.241
  C      291.941    -124.001      38.539
  N      291.147    -124.209      39.615
  N      291.811    -122.904      37.840
  C      292.679    -122.831      36.799
  C      293.637    -123.746      36.412
  C      293.727    -124.979      37.163
  O      294.443    -125.938      36.888
  N      294.339    -123.315      35.318
  C      293.788    -122.151      35.026
  N      292.764    -121.822      35.876
  O      292.315    -115.974      32.860
  O      292.966    -116.807      30.507
  H      290.835    -118.539      38.080
  H      292.287    -115.117      32.387
  H      292.890    -125.837      38.810
  H      294.082    -121.523      34.195
  H      290.851    -121.088      35.728
  H      292.383    -120.125      37.887
  H      291.204    -125.019      40.213
  H      294.007    -119.054      36.436
  H      290.477    -123.478      39.851
  H      291.650    -117.952      34.819
  H      293.751    -117.032      34.094
  H      294.548    -118.622      34.110
  P      293.795    -117.117      38.283
  C      292.578    -116.556      40.511
  O      292.910    -117.541      39.553
  O      293.851    -115.520      38.365
  O      295.168    -117.713      38.225
  H      294.728    -115.241      38.698
  H      291.621    -116.819      40.964
  H      292.498    -115.562      40.059
  H      293.352    -116.532      41.286
  H      289.458    -118.858      30.825
  H      291.082    -119.501      30.872
  H      290.696    -118.181      29.795

 3  4  5  6  7  8  9  10  11  12  23  26  30  31 0
 6-311+G(2d,p)
 ****
 33  35  36  37  38 0
 6-311+G(2d,p)
 ****
 1  2  13  14  15  16  17  18  19  20  21  22  24  25 0
 3-21G
 ****
 27  28  29  32  34  39  40  41  42  43  44  45  46  47  48  49 0
 3-21G
 ****


