%nproc=1
%NoSave
%Mem=1900MB
#P OB98/GEN NMR

erre ene a

0 1
  C       63.340     -43.692     -70.789
  O       63.706     -45.011     -70.452
  H       63.138     -43.650     -71.862
  H       64.166     -43.012     -70.560
  H       62.444     -43.374     -70.250
  P       63.628     -45.464     -68.920
  C       66.013     -44.556     -68.532
  O       64.662     -44.558     -68.088
  C       66.998     -44.536     -67.363
  O       66.790     -43.356     -66.555
  C       66.812     -45.729     -66.426
  O       67.471     -46.919     -66.820
  C       67.388     -45.191     -65.119
  O       68.813     -45.373     -65.074
  C       67.038     -43.702     -65.182
  N       65.031     -43.383     -60.494
  C       66.261     -43.881     -60.881
  N       67.025     -44.413     -59.902
  N       66.685     -43.871     -62.117
  C       65.775     -43.397     -63.000
  C       64.521     -42.891     -62.737
  C       64.083     -42.855     -61.356
  O       63.000     -42.432     -60.961
  N       63.884     -42.498     -63.890
  C       64.719     -42.836     -64.851
  N       65.891     -43.361     -64.360
  O       64.346     -46.899     -68.914
  O       62.247     -45.551     -68.346
  H       68.998     -46.324     -64.975
  H       64.008     -47.436     -68.175
  H       64.769     -43.392     -59.524
  H       64.537     -42.699     -65.912
  H       67.875     -43.079     -64.841
  H       66.976     -45.713     -64.250
  H       66.694     -44.548     -58.959
  H       65.746     -45.931     -66.273
  H       67.801     -45.018     -60.178
  H       68.022     -44.484     -67.754
  H       66.141     -43.660     -69.144
  H       66.201     -45.418     -69.177
  P       66.694     -48.318     -66.774
  C       67.859     -48.732     -64.484
  O       66.671     -48.791     -65.243
  O       67.730     -49.321     -67.469
  O       65.370     -48.325     -67.459
  H       67.509     -49.433     -68.411
  H       67.666     -49.082     -63.492
  H       68.207     -47.721     -64.444
  H       68.605     -49.348     -64.941

 6  7  8  9  10  11  12  13  14  15  26  29  33  34 0
 6-311+G(2d,p)
 ****
 36  38  39  40  41 0
 6-311+G(2d,p)
 ****
 1  2  3  4  5  16  17  18  19  20  21  22  23  24  25 0
 3-21G
 ****
 27  28  30  31  32  35  37  42  43  44  45  46  47 0
 3-21G
 ****
 48  49 0
 3-21G
 ****


