%nproc=1
%NoSave
%Mem=1900MB
#P OB98/GEN NMR

erre ene a

0 1
  C     -552.919     542.913     186.676
  O     -553.625     544.096     186.953
  P     -554.126     545.104     185.829
  C     -556.515     544.017     185.912
  O     -555.425     544.483     185.113
  C     -557.868     544.419     185.294
  O     -558.099     543.577     184.126
  C     -559.021     544.174     186.278
  O     -559.993     545.219     186.274
  C     -559.504     542.776     185.901
  O     -560.827     542.492     186.339
  C     -559.262     542.754     184.391
  N     -561.333     538.274     183.192
  C     -561.966     539.445     183.532
  N     -563.283     539.378     183.789
  N     -561.330     540.583     183.680
  C     -559.989     540.485     183.538
  C     -559.266     539.371     183.171
  C     -559.964     538.129     182.990
  O     -559.443     537.039     182.777
  N     -557.910     539.632     183.178
  C     -557.820     540.893     183.557
  N     -559.052     541.440     183.817
  O     -553.077     545.725     184.960
  O     -554.782     546.287     186.724
  H     -561.416     543.116     185.878
  H     -554.619     547.122     186.251
  H     -561.879     537.403     183.175
  H     -556.900     541.443     183.683
  H     -560.106     543.195     183.848
  H     -558.835     542.067     186.412
  H     -563.755     538.489     183.830
  H     -558.657     544.178     187.298
  H     -563.723     540.143     184.281
  H     -557.810     545.460     184.933
  H     -556.391     544.494     186.890
  H     -556.450     542.946     186.049
  P     -560.799     545.846     187.503
  C     -559.845     548.237     187.516
  O     -559.878     546.986     188.171
  O     -560.816     544.708     188.617
  O     -562.188     546.278     187.199
  H     -561.673     544.693     189.078
  H     -558.988     548.811     187.890
  H     -560.761     548.779     187.708
  H     -559.722     548.093     186.426
  H     -552.695     542.409     187.593
  H     -552.008     543.152     186.168
  H     -553.517     542.278     186.056

 3  4  5  6  7  8  9  10  11  12  23  26  30  31 0
 6-311+G(2d,p)
 ****
 33  35  36  37  38 0
 6-311+G(2d,p)
 ****
 1  2  13  14  15  16  17  18  19  20  21  22  24  25 0
 3-21G
 ****
 27  28  29  32  34  39  40  41  42  43  44  45  46  47  48  49 0
 3-21G
 ****


