%nproc=1
%NoSave
%Mem=1900MB
#P OB98/GEN NMR

erre ene a

0 1
  C      378.138     188.082    -204.188
  O      378.464     187.558    -202.893
  P      379.913     187.713    -202.227
  C      380.663     185.538    -201.058
  O      379.997     186.789    -200.919
  C      379.806     184.381    -200.540
  O      378.520     184.374    -201.192
  C      380.386     182.995    -200.779
  O      381.437     182.715    -199.870
  C      379.149     182.121    -200.611
  O      378.883     181.860    -199.224
  C      378.046     183.013    -201.218
  N      377.677     182.603    -202.568
  C      377.456     181.238    -202.768
  O      377.631     180.437    -201.846
  N      377.068     180.810    -204.013
  C      376.981     181.659    -204.988
  N      376.585     181.180    -206.198
  C      377.293     183.094    -204.843
  C      377.629     183.492    -203.617
  O      380.329     189.131    -201.999
  O      380.917     186.997    -203.252
  H      378.035     181.378    -199.190
  H      381.787     187.439    -203.204
  H      377.237     183.761    -205.687
  H      377.863     184.527    -203.419
  H      377.150     182.993    -200.589
  H      379.246     181.151    -201.108
  H      380.746     182.917    -201.814
  H      379.636     184.543    -199.467
  H      376.370     180.193    -206.265
  H      381.596     185.581    -200.484
  H      376.482     181.754    -207.022
  H      380.910     185.385    -202.114
  P      382.642     181.759    -200.317
  C      382.421     179.500    -199.117
  O      382.981     180.800    -199.082
  O      383.817     182.442    -200.931
  O      381.958     180.753    -201.362
  H      382.622     180.493    -202.030
  H      383.019     178.844    -198.481
  H      382.412     179.103    -200.135
  H      381.397     179.537    -198.731
  H      377.118     187.856    -204.418
  H      378.776     187.638    -204.923
  H      378.277     189.143    -204.189

 3  4  5  6  7  8  9  10  11  12  13  23  27  28  29  30  32 0
 6-311+G(2d,p)
 ****
 34  35 0
 6-311+G(2d,p)
 ****
 1  2  14  15  16  17  18  19  20  21  22  24  25  26 0
 3-21G
 ****
 31  33  36  37  38  39  40  41  42  43  44  45  46 0
 3-21G
 ****


