%nproc=1
%NoSave
%Mem=1900MB
#P OB98/GEN NMR

erre ene a

0 1
  C      460.255     373.974    -203.476
  O      460.230     374.596    -202.207
  H      459.259     374.069    -203.926
  H      460.483     372.910    -203.372
  H      460.985     374.456    -204.135
  P      461.608     374.736    -201.399
  C      462.331     376.920    -202.575
  O      461.960     376.298    -201.347
  C      462.195     378.439    -202.445
  O      460.839     378.789    -202.079
  C      463.088     379.048    -201.376
  O      464.426     379.136    -201.809
  C      462.395     380.393    -201.156
  O      462.779     381.331    -202.172
  C      460.909     380.005    -201.292
  N      460.239     379.840    -200.006
  C      459.918     381.006    -199.315
  O      460.201     382.123    -199.725
  N      459.291     380.824    -198.110
  C      459.051     379.626    -197.492
  O      458.567     379.530    -196.364
  C      459.438     378.432    -198.260
  C      460.005     378.590    -199.463
  O      462.720     373.849    -201.846
  O      461.186     374.414    -199.884
  H      463.707     381.577    -201.988
  H      461.492     373.516    -199.645
  H      459.062     381.658    -197.592
  H      459.253     377.467    -197.803
  H      460.297     377.718    -200.035
  H      460.370     380.768    -201.865
  H      462.649     380.834    -200.191
  H      463.017     378.467    -200.444
  H      462.408     378.890    -203.429
  H      461.667     376.558    -203.360
  H      463.361     376.647    -202.810
  P      465.621     378.826    -200.785
  C      465.718     376.264    -200.478
  O      466.247     377.397    -201.186
  O      465.282     378.982    -199.334
  O      466.771     379.847    -201.215
  H      466.980     380.436    -200.466
  H      466.201     375.372    -200.820
  H      464.666     376.191    -200.657
  H      465.894     376.385    -199.429

 6  7  8  9  10  11  12  13  14  15  16  26  31  32  33  34  35 0
 6-311+G(2d,p)
 ****
 36  37 0
 6-311+G(2d,p)
 ****
 1  2  3  4  5  17  18  19  20  21  22  23  24  25 0
 3-21G
 ****
 27  28  29  30  38  39  40  41  42  43  44  45 0
 3-21G
 ****


