%nproc=1
%NoSave
%Mem=1900MB
#P OB98/GEN NMR

erre ene a

0 1
  C      105.971    -523.232     392.292
  O      106.856    -523.894     391.406
  H      105.178    -522.762     391.706
  H      106.505    -522.451     392.843
  H      105.519    -523.941     392.992
  P      108.032    -524.796     392.019
  C      107.771    -526.221     389.886
  O      108.672    -525.612     390.803
  C      108.496    -526.532     388.577
  O      109.767    -527.159     388.846
  C      107.739    -527.498     387.674
  O      106.672    -526.853     387.013
  C      108.862    -527.968     386.763
  O      109.111    -527.011     385.718
  C      110.051    -528.048     387.739
  N      110.314    -529.409     388.211
  C      111.214    -530.153     387.455
  O      111.755    -529.740     386.432
  N      111.460    -531.425     387.916
  C      110.820    -532.041     388.951
  O      111.014    -533.209     389.265
  C      109.860    -531.210     389.692
  C      109.655    -529.952     389.295
  O      107.663    -525.618     393.211
  O      109.175    -523.729     392.377
  H      108.380    -527.115     385.075
  H      109.195    -523.588     393.339
  H      112.100    -531.989     387.378
  H      109.343    -531.658     390.525
  H      108.949    -529.323     389.822
  H      110.963    -527.672     387.260
  H      108.625    -528.918     386.276
  H      107.376    -528.353     388.258
  H      108.689    -525.580     388.055
  H      106.947    -525.527     389.691
  H      107.367    -527.137     390.336
  P      105.158    -527.137     387.469
  C      104.613    -525.247     385.818
  O      104.185    -526.483     386.375
  O      104.848    -526.792     388.887
  O      104.980    -528.710     387.215
  H      104.770    -529.148     388.060
  H      103.891    -524.908     385.105
  H      105.557    -525.382     385.332
  H      104.714    -524.521     386.597

 6  7  8  9  10  11  12  13  14  15  16  26  31  32  33  34  35 0
 6-311+G(2d,p)
 ****
 36  37 0
 6-311+G(2d,p)
 ****
 1  2  3  4  5  17  18  19  20  21  22  23  24  25 0
 3-21G
 ****
 27  28  29  30  38  39  40  41  42  43  44  45 0
 3-21G
 ****


