%nproc=1
%NoSave
%Mem=1900MB
#P OB98/GEN NMR

erre ene a

0 1
  C     -196.501     337.020     206.047
  O     -195.678     337.862     205.236
  P     -194.292     338.385     205.856
  C     -194.086     340.836     205.003
  O     -193.679     339.484     204.859
  C     -193.754     341.627     203.738
  O     -192.342     341.573     203.429
  C     -194.471     341.122     202.496
  O     -195.791     341.641     202.397
  C     -193.603     341.720     201.393
  O     -193.948     343.098     201.196
  C     -192.195     341.592     201.988
  N     -188.559     339.797     198.961
  C     -188.993     341.096     199.160
  N     -188.364     342.057     198.453
  N     -189.961     341.420     199.972
  C     -190.491     340.356     200.631
  C     -190.149     339.029     200.516
  C     -189.085     338.683     199.594
  O     -188.668     337.555     199.370
  N     -190.913     338.241     201.335
  C     -191.707     339.094     201.959
  N     -191.502     340.394     201.557
  O     -193.316     337.132     205.647
  O     -194.375     338.787     207.292
  H     -193.267     343.478     200.607
  H     -192.622     337.138     206.335
  H     -187.818     339.604     198.313
  H     -192.441     338.828     202.712
  H     -191.554     342.444     201.730
  H     -193.748     341.219     200.434
  H     -187.579     341.886     197.846
  H     -194.446     340.028     202.439
  H     -188.646     343.019     198.609
  H     -194.035     342.682     203.908
  H     -193.594     341.294     205.868
  H     -195.161     340.866     205.229
  P     -196.934     340.665     201.838
  C     -198.108     342.670     200.680
  O     -198.218     341.592     201.578
  O     -197.328     339.805     203.127
  O     -196.516     339.798     200.697
  H     -197.611     338.905     202.859
  H     -199.105     343.084     200.505
  H     -197.697     342.334     199.724
  H     -197.473     343.454     201.102
  H     -197.384     336.754     205.504
  H     -196.775     337.542     206.940
  H     -195.960     336.134     206.305

 3  4  5  6  7  8  9  10  11  12  23  26  30  31 0
 6-311+G(2d,p)
 ****
 33  35  36  37  38 0
 6-311+G(2d,p)
 ****
 1  2  13  14  15  16  17  18  19  20  21  22  24  25 0
 3-21G
 ****
 27  28  29  32  34  39  40  41  42  43  44  45  46  47  48  49 0
 3-21G
 ****


