%nproc=1
%NoSave
%Mem=1900MB
#P OB98/GEN NMR

erre ene a

0 1
  C      858.346    -897.910     171.214
  O      859.692    -898.280     171.477
  P      860.700    -898.370     170.216
  C      861.867    -896.040     170.321
  O      860.892    -896.850     169.698
  C      862.997    -895.720     169.340
  O      862.526    -894.860     168.276
  C      864.185    -895.020     169.965
  O      865.045    -895.930     170.615
  C      864.821    -894.350     168.756
  O      865.635    -895.290     168.014
  C      863.587    -893.950     167.938
  N      864.375    -889.090     166.766
  C      865.137    -890.210     166.443
  N      866.232    -890.010     165.696
  N      864.828    -891.420     166.865
  C      863.718    -891.440     167.631
  C      862.902    -890.400     168.026
  C      863.207    -889.090     167.516
  O      862.539    -888.090     167.667
  N      861.851    -890.840     168.795
  C      862.052    -892.140     168.886
  N      863.147    -892.580     168.178
  O      859.768    -899.040     169.087
  O      861.952    -899.120     170.463
  H      865.088    -896.040     167.730
  H      859.950    -900.000     169.027
  H      864.642    -888.180     166.405
  H      861.423    -892.840     169.436
  H      863.754    -894.030     166.855
  H      865.488    -893.520     169.023
  H      866.533    -889.110     165.369
  H      863.841    -894.240     170.662
  H      866.778    -890.830     165.464
  H      863.311    -896.670     168.880
  H      862.276    -896.550     171.204
  H      861.384    -895.120     170.654
  P      866.180    -895.350     171.590
  C      865.181    -896.360     173.787
  O      865.542    -895.190     173.055
  O      866.340    -893.840     171.086
  O      867.471    -896.100     171.562
  H      867.302    -893.590     171.158
  H      865.263    -896.130     174.849
  H      865.850    -897.190     173.531
  H      864.153    -896.640     173.557
  H      857.796    -897.890     172.131
  H      857.904    -898.622     170.548
  H      858.324    -896.939     170.764

 3  4  5  6  7  8  9  10  11  12  23  26  30  31 0
 6-311+G(2d,p)
 ****
 33  35  36  37  38 0
 6-311+G(2d,p)
 ****
 1  2  13  14  15  16  17  18  19  20  21  22  24  25 0
 3-21G
 ****
 27  28  29  32  34  39  40  41  42  43  44  45  46  47  48  49 0
 3-21G
 ****


