%nproc=1
%NoSave
%Mem=1900MB
#P OB98/GEN NMR

erre ene a

0 1
  C     -169.726     -92.971     718.126
  O     -170.254     -93.689     717.010
  P     -169.892     -95.249     716.905
  C     -167.410     -95.297     716.143
  O     -168.324     -95.427     717.228
  C     -165.991     -95.728     716.559
  O     -165.930     -97.162     716.805
  C     -164.915     -95.413     715.502
  O     -163.703     -95.109     716.195
  C     -164.751     -96.739     714.780
  O     -163.512     -96.806     714.076
  C     -164.898     -97.701     715.957
  N     -163.458    -101.629     713.012
  C     -162.908    -100.421     713.243
  N     -163.366     -99.421     714.028
  C     -164.511     -99.796     714.638
  C     -165.191    -100.981     714.498
  C     -164.627    -101.940     713.631
  N     -165.204    -103.163     713.369
  N     -166.350    -100.980     715.255
  C     -166.357     -99.791     715.838
  N     -165.248     -99.054     715.521
  O     -169.983     -95.540     715.328
  O     -170.814     -96.139     717.684
  H     -163.433     -97.693     713.685
  H     -170.788     -96.073     715.138
  H     -161.974    -100.226     712.718
  H     -167.142     -99.418     716.489
  H     -163.980     -97.789     716.549
  H     -165.571     -96.873     714.052
  H     -165.168     -94.596     714.818
  H     -165.730     -95.230     717.494
  H     -167.372     -94.240     715.811
  H     -164.754    -103.767     712.719
  H     -166.099    -103.388     713.786
  H     -167.770     -95.874     715.289
  P     -163.368     -93.557     716.415
  C     -162.417     -93.404     713.995
  O     -163.339     -92.896     714.950
  O     -161.829     -93.566     716.862
  O     -164.243     -92.878     717.417
  H     -161.630     -92.773     717.400
  H     -162.905     -93.454     713.020
  H     -162.060     -94.407     714.254
  H     -161.552     -92.736     713.927
  H     -170.041     -91.950     718.075
  H     -168.657     -93.016     718.106
  H     -170.084     -93.409     719.034

 3  4  5  6  7  8  9  10  11  12  22  25  29  30  31  32 0
 6-311+G(2d,p)
 ****
 33  36  37 0
 6-311+G(2d,p)
 ****
 1  2  13  14  15  16  17  18  19  20  21  23  24  26 0
 3-21G
 ****
 27  28  34  35  38  39  40  41  42  43  44  45  46  47  48 0
 3-21G
 ****


