%nproc=1
%NoSave
%Mem=1900MB
#P OB98/GEN NMR

erre ene a

0 1
  C      -46.276     -10.144     106.875
  O      -45.052      -9.996     107.556
  P      -44.227     -11.212     108.174
  C      -44.442     -12.803     110.237
  O      -45.034     -11.790     109.432
  C      -45.504     -13.782     110.761
  O      -46.479     -14.008     109.711
  C      -44.892     -15.150     111.106
  O      -45.392     -15.724     112.305
  C      -45.086     -15.942     109.818
  O      -45.020     -17.349     110.001
  C      -46.419     -15.394     109.316
  N      -49.090     -17.500     105.539
  C      -49.363     -17.483     106.893
  N      -50.374     -18.280     107.306
  N      -48.681     -16.778     107.759
  C      -47.629     -16.122     107.216
  C      -47.263     -16.062     105.890
  C      -48.044     -16.819     104.941
  O      -47.769     -16.953     103.748
  N      -46.102     -15.355     105.715
  C      -45.745     -15.014     106.937
  N      -46.625     -15.485     107.884
  O      -42.751     -11.020     108.311
  O      -44.467     -12.364     107.064
  H      -44.117     -17.565     110.298
  H      -43.652     -12.902     107.028
  H      -49.603     -18.129     104.932
  H      -44.852     -14.455     107.195
  H      -47.262     -15.911     109.775
  H      -44.270     -15.671     109.139
  H      -50.817     -18.942     106.685
  H      -43.818     -15.051     111.301
  H      -50.429     -18.475     108.301
  H      -46.025     -13.328     111.611
  H      -43.960     -12.287     111.076
  H      -43.668     -13.335     109.680
  P      -44.750     -16.874     113.209
  C      -43.458     -19.026     112.679
  O      -44.520     -18.172     112.299
  O      -45.924     -17.334     114.193
  O      -43.554     -16.452     113.997
  H      -45.558     -17.507     115.081
  H      -43.233     -19.699     111.847
  H      -43.758     -19.621     113.545
  H      -42.561     -18.448     112.921
  H      -46.627      -9.184     106.559
  H      -46.996     -10.589     107.529
  H      -46.135     -10.771     106.020

 3  4  5  6  7  8  9  10  11  12  23  26  30  31 0
 6-311+G(2d,p)
 ****
 33  35  36  37  38 0
 6-311+G(2d,p)
 ****
 1  2  13  14  15  16  17  18  19  20  21  22  24  25 0
 3-21G
 ****
 27  28  29  32  34  39  40  41  42  43  44  45  46  47  48  49 0
 3-21G
 ****


