%nproc=1
%NoSave
%Mem=1900MB
#P OB98/GEN NMR

erre ene a

0 1
  C      -89.722     -41.805       4.725
  O      -90.999     -41.691       4.132
  H      -89.032     -42.226       3.991
  H      -89.758     -42.468       5.594
  H      -89.354     -40.819       5.024
  P      -92.223     -41.203       5.042
  C      -91.591     -38.700       4.896
  O      -92.554     -39.699       4.598
  C      -92.272     -37.364       5.219
  O      -91.251     -36.396       5.595
  C      -93.053     -36.765       4.038
  O      -94.138     -36.005       4.585
  C      -92.013     -35.850       3.424
  O      -92.592     -34.943       2.520
  C      -91.367     -35.278       4.689
  N      -90.082     -34.650       4.427
  C      -89.905     -33.365       4.945
  O      -90.812     -32.817       5.573
  N      -88.718     -32.718       4.713
  C      -87.814     -33.279       3.972
  N      -86.666     -32.579       3.768
  C      -87.986     -34.611       3.356
  C      -89.130     -35.236       3.627
  O      -92.058     -41.400       6.512
  O      -93.475     -42.029       4.482
  H      -93.073     -35.419       1.805
  H      -93.702     -42.745       5.103
  H      -87.210     -35.026       2.730
  H      -89.348     -36.219       3.219
  H      -92.026     -34.538       5.163
  H      -91.278     -36.429       2.857
  H      -93.433     -37.524       3.349
  H      -92.918     -37.500       6.094
  H      -86.596     -31.666       4.200
  H      -90.949     -38.589       4.017
  H      -85.904     -32.904       3.193
  H      -90.974     -39.012       5.745
  P      -95.677     -36.393       4.357
  C      -96.144     -37.678       6.545
  O      -96.411     -36.508       5.776
  O      -95.879     -37.580       3.470
  O      -96.340     -35.091       3.700
  H      -97.066     -35.366       3.110
  H      -96.691     -37.633       7.464
  H      -95.096     -37.735       6.756
  H      -96.444     -38.544       5.993

 6  7  8  9  10  11  12  13  14  15  16  26  30  31  32  33  35 0
 6-311+G(2d,p)
 ****
 37  38 0
 6-311+G(2d,p)
 ****
 1  2  3  4  5  17  18  19  20  21  22  23  24  25 0
 3-21G
 ****
 27  28  29  34  36  39  40  41  42  43  44  45  46 0
 3-21G
 ****


