%nproc=1
%NoSave
%Mem=1900MB
#P OB98/GEN NMR

erre ene a

0 1
  C     -383.706     395.080     532.445
  O     -383.562     395.250     531.031
  P     -384.489     396.291     530.241
  C     -386.612     394.860     530.158
  O     -386.026     396.061     530.662
  C     -388.070     394.665     530.607
  O     -388.637     393.472     530.004
  C     -388.280     394.551     532.120
  O     -389.553     395.146     532.395
  C     -388.322     393.046     532.330
  O     -388.923     392.682     533.563
  C     -389.086     392.603     531.067
  N     -388.861     391.196     530.743
  C     -389.831     390.286     531.168
  O     -390.803     390.669     531.820
  N     -389.672     388.955     530.866
  C     -388.577     388.555     530.293
  N     -388.462     387.225     530.043
  C     -387.473     389.464     529.913
  C     -387.693     390.755     530.155
  O     -384.255     396.342     528.760
  O     -384.137     397.715     530.906
  H     -388.681     391.757     533.763
  H     -384.247     398.417     530.245
  H     -386.575     389.082     529.463
  H     -386.953     391.517     529.906
  H     -390.163     392.757     531.195
  H     -387.305     392.636     532.315
  H     -387.480     395.018     532.716
  H     -388.653     395.522     530.215
  H     -389.220     386.628     530.345
  H     -386.015     394.008     530.510
  H     -387.615     386.791     529.717
  H     -386.559     394.862     529.067
  P     -389.695     396.650     532.917
  C     -389.143     396.078     535.353
  O     -388.737     396.793     534.198
  O     -391.092     397.111     533.125
  O     -388.951     397.541     531.802
  H     -389.232     398.474     531.893
  H     -388.330     396.078     536.075
  H     -389.399     395.036     535.109
  H     -390.019     396.578     535.795
  H     -383.006     394.348     532.789
  H     -384.701     394.753     532.665
  H     -383.519     396.012     532.937

 3  4  5  6  7  8  9  10  11  12  13  23  27  28  29  30  32 0
 6-311+G(2d,p)
 ****
 34  35 0
 6-311+G(2d,p)
 ****
 1  2  14  15  16  17  18  19  20  21  22  24  25  26 0
 3-21G
 ****
 31  33  36  37  38  39  40  41  42  43  44  45  46 0
 3-21G
 ****


