%nproc=1
%NoSave
%Mem=1900MB
#P OB98/GEN NMR

erre ene a

0 1
  C     -209.457    -351.075    -294.900
  O     -210.568    -351.414    -294.091
  H     -208.675    -351.822    -294.752
  H     -209.070    -350.094    -294.605
  H     -209.743    -351.064    -295.957
  P     -211.902    -350.541    -294.291
  C     -212.907    -351.021    -296.671
  O     -212.820    -351.380    -295.303
  C     -213.730    -352.050    -297.450
  O     -212.959    -353.270    -297.570
  C     -215.059    -352.405    -296.778
  O     -216.035    -352.635    -297.799
  C     -214.759    -353.714    -296.070
  O     -215.934    -354.480    -295.828
  C     -213.749    -354.352    -297.043
  N     -212.916    -355.366    -296.394
  C     -213.478    -356.636    -296.237
  O     -214.631    -356.861    -296.626
  N     -212.748    -357.613    -295.613
  C     -211.582    -357.327    -295.125
  N     -210.918    -358.332    -294.491
  C     -210.965    -355.990    -295.225
  C     -211.676    -355.069    -295.875
  O     -211.365    -349.327    -295.185
  O     -212.566    -350.128    -293.021
  H     -216.479    -354.008    -295.158
  H     -210.781    -349.606    -295.910
  H     -209.993    -355.799    -294.792
  H     -211.299    -354.064    -296.003
  H     -214.276    -354.825    -297.884
  H     -214.279    -353.518    -295.102
  H     -215.413    -351.625    -296.100
  H     -213.892    -351.670    -298.465
  H     -211.381    -359.229    -294.426
  H     -211.909    -350.951    -297.113
  H     -210.026    -358.210    -294.028
  H     -213.372    -350.034    -296.731
  P     -217.525    -352.091    -297.602
  C     -217.707    -349.814    -298.821
  O     -217.949    -351.217    -298.878
  O     -217.822    -351.468    -296.281
  O     -218.413    -353.423    -297.798
  H     -219.126    -353.402    -297.131
  H     -218.036    -349.358    -299.732
  H     -216.660    -349.638    -298.692
  H     -218.244    -349.393    -297.997

 6  7  8  9  10  11  12  13  14  15  16  26  30  31  32  33  35 0
 6-311+G(2d,p)
 ****
 37  38 0
 6-311+G(2d,p)
 ****
 1  2  3  4  5  17  18  19  20  21  22  23  24  25 0
 3-21G
 ****
 27  28  29  34  36  39  40  41  42  43  44  45  46 0
 3-21G
 ****


