%nproc=1
%NoSave
%Mem=1900MB
#P OB98/GEN NMR

erre ene a

0 1
  C       92.755    -437.881    -255.828
  O       93.927    -437.397    -256.451
  H       91.885    -437.490    -256.360
  H       92.715    -437.543    -254.790
  H       92.728    -438.973    -255.862
  P       95.328    -437.945    -255.897
  C       96.537    -435.681    -255.448
  O       96.426    -436.830    -256.270
  C       98.012    -435.370    -255.188
  O       98.642    -436.554    -254.628
  C       98.786    -434.994    -256.456
  O       99.751    -433.989    -256.133
  C       99.494    -436.285    -256.828
  O      100.655    -436.095    -257.625
  C       99.795    -436.862    -255.438
  N      100.038    -438.301    -255.469
  C      100.944    -438.819    -254.549
  O      101.497    -438.163    -253.667
  N      101.214    -440.159    -254.673
  C      100.698    -441.000    -255.612
  O      100.995    -442.188    -255.685
  C       99.755    -440.396    -256.563
  C       99.473    -439.095    -256.451
  O       95.675    -439.146    -256.893
  O       95.339    -438.364    -254.465
  H       95.313    -439.987    -256.554
  H      101.134    -436.950    -257.667
  H      101.869    -440.548    -254.011
  H       99.330    -441.032    -257.327
  H       98.790    -438.614    -257.141
  H      100.657    -436.352    -254.992
  H       98.811    -436.941    -257.377
  H       98.139    -434.640    -257.260
  H       98.081    -434.578    -254.432
  H       96.035    -435.871    -254.495
  H       96.052    -434.831    -255.944
  P       99.451    -432.491    -256.630
  C      101.278    -432.488    -258.498
  O      100.824    -431.956    -257.267
  O       99.328    -431.716    -255.238
  O       98.251    -432.401    -257.517
  H       99.945    -432.035    -254.558
  H      102.201    -432.020    -258.770
  H      100.547    -432.304    -259.257
  H      101.429    -433.542    -258.397

 6  7  8  9  10  11  12  13  14  15  16  27  31  32  33  34  35 0
 6-311+G(2d,p)
 ****
 36  37 0
 6-311+G(2d,p)
 ****
 1  2  3  4  5  17  18  19  20  21  22  23  24  25 0
 3-21G
 ****
 26  28  29  30  38  39  40  41  42  43  44  45 0
 3-21G
 ****


