%nproc=1
%NoSave
%Mem=1900MB
#P OB98/GEN NMR

erre ene a

0 1
  C       24.433     -96.373    -709.486
  O       25.734     -96.480    -708.943
  H       24.338     -97.020    -710.366
  H       23.709     -96.684    -708.733
  H       24.235     -95.329    -709.761
  P       26.950     -96.169    -709.929
  C       27.226     -93.699    -709.166
  O       27.813     -94.990    -709.243
  C       27.999     -92.825    -708.183
  O       27.668     -93.191    -706.824
  C       29.515     -92.944    -708.272
  O       30.044     -92.198    -709.354
  C       29.921     -92.349    -706.934
  O       29.896     -90.916    -707.004
  C       28.802     -92.852    -705.988
  N       30.527     -94.490    -701.449
  C       30.263     -93.247    -701.909
  N       29.823     -92.890    -703.128
  C       29.619     -93.971    -703.918
  C       29.860     -95.289    -703.571
  C       30.345     -95.545    -702.279
  N       30.627     -96.817    -701.810
  N       29.538     -96.128    -704.628
  C       29.141     -95.327    -705.589
  N       29.177     -94.007    -705.207
  O       26.249     -95.428    -711.174
  O       27.733     -97.355    -710.392
  H       30.492     -90.662    -707.731
  H       26.698     -95.689    -711.998
  H       30.406     -92.436    -701.207
  H       28.791     -95.649    -706.566
  H       28.473     -92.049    -705.309
  H       30.923     -92.646    -706.622
  H       29.824     -93.997    -708.321
  H       27.671     -91.785    -708.345
  H       26.183     -93.793    -708.827
  H       30.769     -96.950    -700.830
  H       30.467     -97.593    -702.447
  H       27.225     -93.244    -710.163
  P       31.516     -92.575    -709.880
  C       30.885     -94.243    -711.783
  O       31.355     -92.941    -711.438
  O       31.771     -94.005    -709.209
  O       32.578     -91.596    -709.532
  H       32.735     -94.167    -709.093
  H       30.832     -94.333    -712.848
  H       29.912     -94.394    -711.364
  H       31.558     -94.979    -711.396

 6  7  8  9  10  11  12  13  14  15  25  28  32  33  34  35 0
 6-311+G(2d,p)
 ****
 36  39  40 0
 6-311+G(2d,p)
 ****
 1  2  3  4  5  16  17  18  19  20  21  22  23  24 0
 3-21G
 ****
 26  27  29  30  31  37  38  41  42  43  44  45  46  47  48 0
 3-21G
 ****


