%nproc=1
%NoSave
%Mem=1900MB
#P OB98/GEN NMR

erre ene a

0 1
  C     -978.945     187.866     -90.547
  O     -980.285     187.724     -91.028
  P     -981.187     189.045     -91.105
  C     -981.877     189.156     -88.577
  O     -982.259     188.908     -89.925
  C     -983.019     189.826     -87.817
  O     -983.251     191.174     -88.326
  C     -984.358     189.114     -87.954
  O     -984.390     187.934     -87.164
  C     -985.317     190.211     -87.504
  O     -985.363     190.284     -86.073
  C     -984.652     191.474     -88.083
  N     -985.304     191.970     -89.286
  C     -986.425     192.775     -89.072
  O     -986.870     193.032     -87.956
  N     -987.048     193.251     -90.198
  C     -986.671     192.985     -91.493
  O     -987.253     193.451     -92.456
  C     -985.506     192.098     -91.652
  C     -984.886     191.634     -90.560
  O     -982.016     188.778     -92.440
  O     -980.383     190.301     -91.100
  H     -982.236     187.838     -92.569
  H     -985.590     189.384     -85.754
  H     -987.847     193.840     -90.074
  H     -985.201     191.849     -92.658
  H     -984.034     190.976     -90.655
  H     -984.658     192.279     -87.337
  H     -986.346     190.034     -87.848
  H     -984.545     188.860     -89.004
  H     -982.734     189.908     -86.763
  H     -981.002     189.812     -88.558
  H     -981.601     188.211     -88.108
  P     -983.973     186.565     -87.892
  C     -986.353     185.839     -88.706
  O     -985.265     185.612     -87.839
  O     -982.973     185.932     -86.805
  O     -983.374     186.755     -89.244
  H     -983.311     186.003     -85.896
  H     -986.945     184.922     -88.766
  H     -986.011     186.110     -89.710
  H     -986.980     186.639     -88.304
  H     -978.462     186.911     -90.549
  H     -978.963     188.254     -89.550
  H     -978.407     188.539     -91.182

 3  4  5  6  7  8  9  10  11  12  13  24  28  29  30  31  32 0
 6-311+G(2d,p)
 ****
 33  34 0
 6-311+G(2d,p)
 ****
 1  2  14  15  16  17  18  19  20  21  22  23  25  26  27 0
 3-21G
 ****
 35  36  37  38  39  40  41  42  43  44  45 0
 3-21G
 ****


