%nproc=1
%NoSave
%Mem=1900MB
#P OB98/GEN NMR

erre ene a

0 1
  C       31.961     -86.505     459.024
  O       30.701     -87.027     458.574
  P       29.516     -87.460     459.566
  C       30.137     -89.973     459.408
  O       29.129     -88.984     459.242
  C       29.525     -91.373     459.465
  O       28.790     -91.559     460.690
  C       28.504     -91.680     458.369
  O       29.107     -91.883     457.106
  C       27.817     -92.922     458.946
  O       28.555     -94.116     458.640
  C       27.868     -92.649     460.460
  N       26.558     -92.353     461.033
  C       25.769     -93.444     461.385
  O       26.148     -94.591     461.144
  N       24.562     -93.212     461.994
  C       24.129     -91.996     462.129
  N       22.934     -91.823     462.759
  C       24.871     -90.818     461.639
  C       26.066     -91.067     461.109
  O       28.352     -86.523     459.565
  O       30.190     -87.544     461.019
  H       29.511     -87.388     461.702
  H       29.387     -94.071     459.152
  H       24.458     -89.817     461.737
  H       26.687     -90.255     460.741
  H       28.298     -93.507     460.988
  H       26.806     -93.048     458.548
  H       27.781     -90.858     458.310
  H       30.346     -92.107     459.431
  H       22.455     -92.656     463.087
  H       30.658     -89.776     460.354
  H       22.524     -90.923     462.935
  H       30.859     -89.892     458.587
  P       29.440     -90.576     456.241
  C       26.970     -90.724     455.449
  O       28.309     -90.441     455.109
  O       30.756     -90.990     455.419
  O       29.671     -89.339     457.050
  H       31.364     -90.230     455.368
  H       26.311     -90.147     454.792
  H       26.754     -90.464     456.491
  H       26.781     -91.786     455.294
  H       32.581     -86.292     458.179
  H       32.444     -87.228     459.648
  H       31.796     -85.606     459.581

 3  4  5  6  7  8  9  10  11  12  13  24  27  28  29  30  32 0
 6-311+G(2d,p)
 ****
 34  35 0
 6-311+G(2d,p)
 ****
 1  2  14  15  16  17  18  19  20  21  22  23  25  26 0
 3-21G
 ****
 31  33  36  37  38  39  40  41  42  43  44  45  46 0
 3-21G
 ****


