%nproc=1
%NoSave
%Mem=1900MB
#P OB98/GEN NMR

erre ene a

0 1
  C     -266.022    -168.235     -37.657
  O     -267.168    -167.381     -37.732
  P     -268.335    -167.801     -38.754
  C     -270.236    -166.744     -37.300
  O     -269.521    -166.740     -38.525
  C     -269.596    -165.781     -36.293
  O     -269.469    -164.455     -36.889
  C     -270.375    -165.628     -34.983
  O     -269.403    -165.498     -33.934
  C     -271.116    -164.318     -35.173
  O     -271.501    -163.732     -33.939
  C     -270.082    -163.521     -35.976
  N     -270.667    -162.383     -36.683
  C     -270.782    -161.195     -35.973
  O     -270.490    -161.094     -34.782
  N     -271.291    -160.128     -36.668
  C     -271.757    -160.162     -37.951
  O     -272.202    -159.176     -38.528
  C     -271.714    -161.475     -38.616
  C     -271.181    -162.510     -37.959
  O     -268.872    -169.146     -38.085
  O     -267.856    -167.935     -40.161
  H     -268.871    -169.127     -37.111
  H     -270.726    -163.704     -33.343
  H     -271.354    -159.250     -36.183
  H     -272.130    -161.552     -39.612
  H     -271.156    -163.493     -38.407
  H     -269.291    -163.149     -35.317
  H     -272.022    -164.487     -35.771
  H     -271.030    -166.476     -34.774
  H     -268.580    -166.136     -36.080
  H     -270.236    -167.751     -36.873
  H     -271.280    -166.478     -37.494
  P     -269.128    -166.772     -32.984
  C     -266.519    -166.894     -32.898
  O     -267.719    -166.526     -32.263
  O     -268.782    -167.876     -34.093
  O     -270.276    -167.164     -32.114
  H     -268.147    -167.562     -34.756
  H     -265.680    -166.433     -32.360
  H     -266.494    -166.546     -33.935
  H     -266.397    -167.979     -32.870
  H     -265.329    -167.840     -36.944
  H     -265.553    -168.288     -38.617
  H     -266.327    -169.215     -37.354

 3  4  5  6  7  8  9  10  11  12  13  24  28  29  30  31  32 0
 6-311+G(2d,p)
 ****
 33  34 0
 6-311+G(2d,p)
 ****
 1  2  14  15  16  17  18  19  20  21  22  23  25  26  27 0
 3-21G
 ****
 35  36  37  38  39  40  41  42  43  44  45 0
 3-21G
 ****


