%nproc=1
%NoSave
%Mem=1900MB
#P OB98/GEN NMR

erre ene a

0 1
  C       -1.776      14.246      15.752
  O       -2.223      15.091      14.694
  P       -1.277      15.728      13.578
  C       -0.800      18.063      14.671
  O       -0.311      16.786      14.289
  C        0.231      18.897      15.450
  O        0.650      18.166      16.632
  C        1.489      19.117      14.609
  O        1.534      20.164      13.659
  C        2.627      19.147      15.618
  O        2.957      20.473      16.033
  C        2.072      18.343      16.797
  N        6.326      15.791      18.045
  C        6.123      17.152      17.944
  N        7.200      17.939      18.153
  N        4.973      17.692      17.648
  C        4.002      16.791      17.377
  C        4.087      15.419      17.423
  C        5.351      14.830      17.810
  O        5.581      13.631      17.925
  N        2.901      14.831      17.063
  C        2.110      15.843      16.776
  N        2.731      17.057      16.958
  O       -1.960      16.169      12.329
  O       -0.290      14.512      13.191
  H        3.690      20.414      16.671
  H       -0.074      14.620      12.243
  H        7.228      15.428      18.300
  H        1.084      15.754      16.440
  H        2.210      18.881      17.743
  H        3.539      18.722      15.183
  H        8.136      17.582      18.267
  H        1.644      18.203      14.022
  H        7.110      18.916      17.869
  H       -0.215      19.825      15.814
  H       -1.692      17.891      15.281
  H       -1.129      18.615      13.790
  P        1.165      20.049      12.105
  C        3.550      19.744      11.221
  O        2.279      19.144      11.399
  O        1.480      21.507      11.525
  O       -0.246      19.656      11.817
  H        1.054      21.627      10.656
  H        4.111      19.173      10.476
  H        4.098      19.729      12.167
  H        3.449      20.777      10.874
  H       -2.611      13.959      16.356
  H       -1.065      14.773      16.353
  H       -1.316      13.372      15.340

 3  4  5  6  7  8  9  10  11  12  23  26  30  31 0
 6-311+G(2d,p)
 ****
 33  35  36  37  38 0
 6-311+G(2d,p)
 ****
 1  2  13  14  15  16  17  18  19  20  21  22  24  25 0
 3-21G
 ****
 27  28  29  32  34  39  40  41  42  43  44  45  46  47  48  49 0
 3-21G
 ****


