%nproc=1
%NoSave
%Mem=1900MB
#P OB98/GEN NMR

erre ene a

0 1
  C       20.411      31.083     -55.734
  O       21.412      32.074     -55.873
  P       21.509      32.956     -57.203
  C       23.677      31.809     -57.941
  O       22.331      32.105     -58.289
  C       24.620      32.048     -59.119
  O       24.304      31.104     -60.178
  C       24.546      33.456     -59.725
  O       25.866      33.784     -60.170
  C       23.639      33.256     -60.927
  O       23.783      34.278     -61.906
  C       24.089      31.873     -61.380
  N       21.944      31.745     -66.018
  C       22.869      32.566     -65.478
  N       23.370      32.551     -64.227
  C       22.822      31.560     -63.507
  C       21.846      30.663     -63.911
  C       21.411      30.769     -65.244
  N       20.495      29.917     -65.821
  N       21.496      29.829     -62.865
  C       22.246      30.217     -61.855
  N       23.108      31.216     -62.215
  O       22.001      34.352     -57.008
  O       20.019      32.945     -57.785
  H       23.026      34.227     -62.519
  H       19.598      33.814     -57.634
  H       23.262      33.333     -66.140
  H       22.207      29.815     -60.853
  H       25.035      31.907     -61.934
  H       22.592      33.247     -60.599
  H       24.171      34.218     -59.036
  H       25.643      31.828     -58.787
  H       23.727      30.757     -57.646
  H       20.356      30.000     -66.815
  H       20.286      29.035     -65.359
  H       23.981      32.421     -57.084
  P       26.417      35.280     -60.008
  C       26.238      35.616     -62.538
  O       25.867      36.107     -61.263
  O       27.882      35.398     -59.754
  O       25.556      35.863     -58.786
  H       25.996      36.657     -58.427
  H       27.253      35.948     -62.773
  H       25.550      36.017     -63.287
  H       26.199      34.524     -62.567
  H       20.512      30.606     -54.782
  H       20.519      30.355     -56.511
  H       19.446      31.539     -55.804

 3  4  5  6  7  8  9  10  11  12  22  25  29  30  31  32 0
 6-311+G(2d,p)
 ****
 33  36  37 0
 6-311+G(2d,p)
 ****
 1  2  13  14  15  16  17  18  19  20  21  23  24  26 0
 3-21G
 ****
 27  28  34  35  38  39  40  41  42  43  44  45  46  47  48 0
 3-21G
 ****


