%nproc=1
%NoSave
%Mem=1900MB
#P OB98/GEN NMR

erre ene a

0 1
  C      254.874     491.889    1394.486
  O      253.561     491.392    1394.303
  H      255.482     491.593    1393.627
  H      255.314     491.460    1395.386
  H      254.870     492.980    1394.552
  P      252.420     491.824    1395.341
  C      250.577     491.867    1393.535
  O      251.028     491.288    1394.758
  C      249.322     491.150    1393.061
  O      248.377     491.009    1394.152
  C      248.566     491.897    1391.961
  O      249.208     491.777    1390.709
  C      247.195     491.225    1392.052
  O      247.189     489.976    1391.336
  C      247.054     490.985    1393.574
  N      246.183     491.982    1394.204
  C      244.830     491.904    1393.884
  O      244.359     491.044    1393.126
  N      244.037     492.878    1394.420
  C      244.474     493.978    1395.111
  O      243.769     494.940    1395.350
  C      245.898     493.977    1395.462
  C      246.681     493.003    1394.988
  O      252.429     493.263    1395.748
  O      252.675     490.863    1396.599
  H      253.137     491.367    1397.295
  H      247.253     490.204    1390.393
  H      243.062     492.852    1394.162
  H      246.278     494.793    1396.077
  H      247.749     492.995    1395.222
  H      246.644     489.986    1393.766
  H      246.418     491.856    1391.631
  H      248.461     492.952    1392.238
  H      249.600     490.137    1392.717
  H      251.372     491.762    1392.788
  H      250.382     492.941    1393.703
  P      249.278     493.031    1389.712
  C      251.584     492.188    1388.952
  O      250.318     492.690    1388.544
  O      249.488     494.355    1390.364
  O      247.875     492.989    1388.952
  H      247.472     493.886    1388.995
  H      252.188     491.999    1388.089
  H      251.448     491.278    1389.498
  H      252.069     492.909    1389.576

 6  7  8  9  10  11  12  13  14  15  16  27  31  32  33  34  35 0
 6-311+G(2d,p)
 ****
 36  37 0
 6-311+G(2d,p)
 ****
 1  2  3  4  5  17  18  19  20  21  22  23  24  25 0
 3-21G
 ****
 26  28  29  30  38  39  40  41  42  43  44  45 0
 3-21G
 ****


