%nproc=1
%NoSave
%Mem=1900MB
#P OB98/GEN NMR

erre ene a

0 1
  C      -14.895     -35.414      37.812
  O      -15.548     -34.371      38.505
  H      -15.338     -36.365      38.117
  H      -13.831     -35.430      38.060
  H      -15.026     -35.300      36.733
  P      -15.078     -32.861      38.235
  C      -12.706     -31.825      38.353
  O      -13.606     -32.787      38.880
  C      -11.517     -31.645      39.291
  O      -11.906     -30.971      40.508
  C      -10.871     -32.942      39.764
  O      -10.099     -33.593      38.770
  C      -10.018     -32.410      40.901
  O       -8.860     -31.746      40.367
  C      -10.993     -31.404      41.555
  N      -11.733     -31.983      42.675
  C      -11.620     -31.328      43.907
  O      -10.920     -30.323      44.022
  N      -12.278     -31.847      44.996
  C      -12.968     -32.938      44.872
  N      -13.594     -33.411      45.984
  C      -13.098     -33.671      43.598
  C      -12.465     -33.144      42.553
  O      -16.026     -31.792      38.673
  O      -14.745     -32.818      36.671
  H       -8.291     -32.436      39.980
  H      -14.458     -31.900      36.448
  H      -13.660     -34.591      43.554
  H      -12.508     -33.629      41.584
  H      -10.457     -30.514      41.907
  H       -9.660     -33.192      41.574
  H      -11.622     -33.624      40.183
  H      -10.792     -30.996      38.782
  H      -13.486     -32.888      46.843
  H      -13.249     -30.884      38.222
  H      -14.089     -34.293      45.997
  H      -12.331     -32.157      37.380
  P      -10.246     -35.191      38.664
  C       -9.322     -37.208      40.041
  O       -9.375     -35.802      39.860
  O       -9.410     -35.544      37.349
  O      -11.653     -35.697      38.606
  H      -10.003     -35.655      36.581
  H       -8.699     -37.436      40.880
  H       -8.918     -37.666      39.162
  H      -10.309     -37.582      40.217

 6  7  8  9  10  11  12  13  14  15  16  26  30  31  32  33  35 0
 6-311+G(2d,p)
 ****
 37  38 0
 6-311+G(2d,p)
 ****
 1  2  3  4  5  17  18  19  20  21  22  23  24  25 0
 3-21G
 ****
 27  28  29  34  36  39  40  41  42  43  44  45  46 0
 3-21G
 ****


