%nproc=1
%NoSave
%Mem=1900MB
#P OB98/GEN NMR

erre ene a

0 1
  C      -42.386     637.593     189.118
  O      -42.136     638.234     190.361
  P      -43.262     638.291     191.495
  C      -44.963     639.651     190.023
  O      -44.200     639.548     191.207
  C      -45.541     641.064     189.923
  O      -46.502     641.286     190.981
  C      -44.453     642.129     190.050
  O      -44.001     642.541     188.761
  C      -45.149     643.233     190.818
  O      -45.961     644.035     189.936
  C      -46.055     642.421     191.775
  N      -45.457     641.897     193.022
  C      -45.451     642.688     194.166
  O      -45.943     643.815     194.219
  N      -44.817     642.152     195.259
  C      -44.253     640.908     195.321
  O      -43.492     640.537     196.205
  C      -44.536     640.029     194.181
  C      -45.092     640.559     193.097
  O      -42.436     638.730     192.795
  O      -44.018     637.018     191.714
  H      -46.659     643.457     189.577
  H      -42.229     637.955     193.349
  H      -44.685     642.776     196.047
  H      -44.231     638.991     194.247
  H      -45.274     639.935     192.227
  H      -46.942     642.996     192.062
  H      -44.430     643.915     191.272
  H      -43.621     641.758     190.650
  H      -46.072     641.169     188.968
  H      -45.761     638.908     190.030
  H      -44.328     639.442     189.155
  P      -42.643     643.371     188.629
  C      -43.700     645.593     189.343
  O      -43.106     644.869     188.288
  O      -41.617     642.793     187.719
  O      -42.120     643.462     190.145
  H      -41.436     642.765     190.298
  H      -43.802     646.640     189.040
  H      -43.084     645.547     190.245
  H      -44.700     645.194     189.551
  H      -41.515     637.662     188.500
  H      -43.209     638.071     188.629
  H      -42.622     636.563     189.289

 3  4  5  6  7  8  9  10  11  12  13  23  28  29  30  31  32 0
 6-311+G(2d,p)
 ****
 33  34 0
 6-311+G(2d,p)
 ****
 1  2  14  15  16  17  18  19  20  21  22  24  25  26  27 0
 3-21G
 ****
 35  36  37  38  39  40  41  42  43  44  45 0
 3-21G
 ****


