%nproc=1
%NoSave
%Mem=1900MB
#P OB98/GEN NMR

erre ene a

0 1
  C      -77.973     968.159      43.115
  O      -78.358     968.505      44.442
  P      -77.978     967.536      45.646
  C      -76.058     969.041      46.526
  O      -77.321     968.399      46.824
  C      -75.742     970.112      47.571
  O      -76.483     971.302      47.380
  C      -76.049     969.654      49.012
  O      -75.099     968.714      49.451
  C      -76.051     970.987      49.744
  O      -74.713     971.399      50.087
  C      -76.644     971.952      48.667
  N      -78.047     972.295      48.913
  C      -78.280     973.156      49.989
  O      -77.334     973.542      50.707
  N      -79.553     973.522      50.272
  C      -80.543     973.095      49.521
  N      -81.810     973.488      49.836
  C      -80.345     972.164      48.388
  C      -79.100     971.808      48.137
  O      -77.181     966.316      45.259
  O      -79.395     967.126      46.269
  H      -74.278     971.592      49.243
  H      -79.338     966.245      46.643
  H      -81.182     971.835      47.789
  H      -78.853     971.161      47.330
  H      -76.076     972.874      48.636
  H      -76.646     970.919      50.667
  H      -77.061     969.189      49.039
  H      -74.661     970.348      47.488
  H      -81.918     974.140      50.632
  H      -76.107     969.506      45.529
  H      -82.625     973.252      49.287
  H      -75.263     968.278      46.466
  P      -75.632     967.491      50.353
  C      -73.609     965.975      49.715
  O      -74.348     966.601      50.761
  O      -76.394     966.572      49.273
  O      -76.510     967.866      51.491
  H      -77.150     966.132      49.732
  H      -72.609     965.698      50.117
  H      -73.469     966.645      48.872
  H      -74.133     965.068      49.382
  H      -78.308     968.917      42.438
  H      -78.415     967.222      42.848
  H      -76.907     968.079      43.062

 3  4  5  6  7  8  9  10  11  12  13  23  27  28  29  30  32 0
 6-311+G(2d,p)
 ****
 34  35 0
 6-311+G(2d,p)
 ****
 1  2  14  15  16  17  18  19  20  21  22  24  25  26 0
 3-21G
 ****
 31  33  36  37  38  39  40  41  42  43  44  45  46 0
 3-21G
 ****


