%nproc=1
%NoSave
%Mem=1900MB
#P OB98/GEN NMR

erre ene a

0 1
  C     -108.529    -533.027     332.045
  O     -107.542    -532.851     331.052
  H     -109.364    -533.583     331.613
  H     -108.893    -532.052     332.385
  H     -108.139    -533.591     332.896
  P     -106.085    -532.359     331.489
  C     -105.514    -533.090     329.080
  O     -105.215    -532.205     330.150
  C     -104.257    -533.387     328.254
  O     -103.684    -532.132     327.800
  C     -103.183    -534.088     329.092
  O     -102.334    -534.912     328.301
  C     -102.371    -532.924     329.639
  O     -101.047    -533.293     330.018
  C     -102.429    -531.942     328.471
  N      -99.485    -527.780     328.523
  C      -99.159    -529.074     328.167
  N      -97.882    -529.285     327.767
  N     -100.003    -530.071     328.218
  C     -101.220    -529.728     328.700
  C     -101.654    -528.486     329.107
  C     -100.721    -527.382     329.014
  O     -100.952    -526.222     329.340
  N     -102.953    -528.528     329.545
  C     -103.303    -529.792     329.412
  N     -102.296    -530.556     328.880
  O     -105.438    -533.657     332.172
  O     -106.049    -531.179     332.413
  H     -100.673    -532.555     330.534
  H     -104.716    -533.401     332.773
  H      -98.807    -527.042     328.436
  H     -104.274    -530.199     329.667
  H     -101.629    -532.151     327.750
  H     -102.872    -532.548     330.536
  H      -97.164    -528.591     327.905
  H     -103.605    -534.683     329.901
  H      -97.551    -530.253     327.810
  H     -104.523    -533.956     327.357
  H     -106.273    -532.602     328.465
  H     -105.952    -534.014     329.463
  P     -102.410    -536.502     328.498
  C     -101.827    -536.753     325.927
  O     -101.734    -537.234     327.249
  O     -103.965    -536.832     328.340
  O     -101.864    -536.986     329.803
  H     -104.326    -537.174     329.176
  H     -101.296    -537.410     325.270
  H     -101.400    -535.773     325.873
  H     -102.855    -536.710     325.634

 6  7  8  9  10  11  12  13  14  15  26  29  33  34 0
 6-311+G(2d,p)
 ****
 36  38  39  40  41 0
 6-311+G(2d,p)
 ****
 1  2  3  4  5  16  17  18  19  20  21  22  23  24  25 0
 3-21G
 ****
 27  28  30  31  32  35  37  42  43  44  45  46  47 0
 3-21G
 ****
 48  49 0
 3-21G
 ****


