%nproc=1
%NoSave
%Mem=1900MB
#P OB98/GEN NMR

erre ene a

0 1
  C     -899.090    -772.372     416.902
  O     -897.940    -773.185     416.829
  H     -899.090    -771.676     416.062
  H     -899.080    -771.798     417.835
  H     -900.000    -772.980     416.847
  P     -897.850    -774.432     417.828
  C     -897.400    -772.724     419.737
  O     -897.020    -773.940     419.101
  C     -896.160    -771.867     420.026
  O     -895.320    -772.603     420.963
  C     -895.310    -771.554     418.785
  O     -894.780    -770.235     418.935
  C     -894.180    -772.561     418.882
  O     -893.000    -772.170     418.184
  C     -893.980    -772.636     420.406
  N     -893.270    -773.842     420.819
  C     -891.880    -773.773     420.904
  O     -891.230    -772.740     420.750
  N     -891.250    -774.947     421.201
  C     -891.840    -776.162     421.381
  O     -891.210    -777.180     421.614
  C     -893.310    -776.178     421.256
  C     -893.940    -775.031     420.986
  O     -896.840    -775.425     417.074
  O     -899.160    -775.083     418.150
  H     -897.320    -776.027     416.482
  H     -892.790    -771.253     418.431
  H     -890.240    -774.907     421.259
  H     -893.810    -777.130     421.391
  H     -895.020    -775.028     420.875
  H     -893.450    -771.747     420.758
  H     -894.500    -773.532     418.483
  H     -895.860    -771.628     417.842
  H     -896.490    -770.952     420.539
  H     -897.910    -772.960     420.682
  H     -898.090    -772.184     419.079
  P     -895.700    -769.007     418.453
  C     -893.600    -767.530     417.871
  O     -894.800    -767.692     418.638
  O     -896.760    -768.935     419.641
  O     -896.270    -769.209     417.090
  H     -896.390    -769.145     420.503
  H     -893.136    -766.600     418.127
  H     -893.840    -767.534     416.828
  H     -892.928    -768.335     418.085

 6  7  8  9  10  11  12  13  14  15  16  27  31  32  33  34  35 0
 6-311+G(2d,p)
 ****
 36  37 0
 6-311+G(2d,p)
 ****
 1  2  3  4  5  17  18  19  20  21  22  23  24  25 0
 3-21G
 ****
 26  28  29  30  38  39  40  41  42  43  44  45 0
 3-21G
 ****


