%nproc=1
%NoSave
%Mem=1900MB
#P OB98/GEN NMR

erre ene a

0 1
  C       15.562      31.651     -64.419
  O       16.167      30.686     -63.576
  P       17.725      30.840     -63.231
  C       18.357      28.644     -64.526
  O       18.525      30.040     -64.368
  C       19.548      28.047     -65.282
  O       19.456      28.428     -66.682
  C       20.920      28.507     -64.771
  O       21.819      27.400     -64.912
  C       21.285      29.617     -65.740
  O       22.681      29.866     -65.788
  C       20.698      29.063     -67.043
  N       20.473      30.088     -68.062
  C       21.574      30.547     -68.777
  O       22.725      30.157     -68.588
  N       21.312      31.509     -69.719
  C       20.103      32.091     -69.961
  O       19.929      32.962     -70.804
  C       18.986      31.600     -69.141
  C       19.217      30.633     -68.254
  O       17.849      29.908     -61.938
  O       18.160      32.252     -63.035
  H       17.275      29.124     -61.977
  H       22.946      30.266     -64.940
  H       22.091      31.830     -70.275
  H       18.012      32.048     -69.294
  H       18.409      30.255     -67.637
  H       21.353      28.282     -67.447
  H       20.784      30.544     -65.438
  H       20.891      28.832     -63.727
  H       19.471      26.954     -65.237
  H       17.443      28.449     -65.092
  H       18.248      28.179     -63.541
  P       22.833      27.087     -63.702
  C       24.856      28.073     -65.039
  O       24.084      28.073     -63.860
  O       23.427      25.677     -64.189
  O       22.199      27.013     -62.353
  H       23.711      25.688     -65.116
  H       25.420      29.008     -65.092
  H       24.225      27.996     -65.929
  H       25.561      27.238     -65.017
  H       14.528      31.410     -64.552
  H       16.053      31.652     -65.370
  H       15.648      32.619     -63.972

 3  4  5  6  7  8  9  10  11  12  13  24  28  29  30  31  32 0
 6-311+G(2d,p)
 ****
 33  34 0
 6-311+G(2d,p)
 ****
 1  2  14  15  16  17  18  19  20  21  22  23  25  26  27 0
 3-21G
 ****
 35  36  37  38  39  40  41  42  43  44  45 0
 3-21G
 ****


