%nproc=1
%NoSave
%Mem=1900MB
#P OB98/GEN NMR

erre ene a

0 1
  C     -176.485    -332.697     265.445
  O     -177.682    -333.041     266.103
  H     -176.470    -331.613     265.296
  H     -176.434    -333.178     264.464
  H     -175.618    -332.980     266.047
  P     -177.992    -334.584     266.416
  C     -178.357    -334.258     268.937
  O     -178.974    -334.571     267.694
  C     -179.113    -333.141     269.655
  O     -178.812    -331.867     269.026
  C     -180.641    -333.311     269.642
  O     -181.168    -333.096     270.951
  C     -181.117    -332.211     268.706
  O     -182.464    -331.820     268.948
  C     -180.054    -331.140     268.969
  N     -180.050    -330.108     267.934
  C     -180.088    -328.785     268.379
  O     -180.116    -328.536     269.583
  N     -180.149    -327.779     267.450
  C     -180.214    -328.067     266.190
  N     -180.305    -327.021     265.325
  C     -180.209    -329.453     265.676
  C     -180.121    -330.417     266.593
  O     -176.783    -335.448     266.558
  O     -178.962    -335.055     265.232
  H     -182.560    -331.601     269.903
  H     -178.912    -336.033     265.147
  H     -180.267    -329.641     264.614
  H     -180.104    -331.466     266.313
  H     -180.215    -330.656     269.939
  H     -181.047    -332.557     267.665
  H     -180.953    -334.297     269.293
  H     -178.734    -333.074     270.684
  H     -180.312    -326.086     265.721
  H     -177.320    -333.955     268.745
  H     -180.384    -327.125     264.320
  H     -178.364    -335.153     269.561
  P     -182.705    -333.507     271.177
  C     -182.307    -335.301     273.006
  O     -182.862    -334.036     272.680
  O     -182.867    -334.828     270.281
  O     -183.671    -332.443     270.767
  H     -183.428    -334.637     269.507
  H     -182.491    -335.516     274.038
  H     -181.252    -335.284     272.828
  H     -182.760    -336.056     272.398

 6  7  8  9  10  11  12  13  14  15  16  26  30  31  32  33  35 0
 6-311+G(2d,p)
 ****
 37  38 0
 6-311+G(2d,p)
 ****
 1  2  3  4  5  17  18  19  20  21  22  23  24  25 0
 3-21G
 ****
 27  28  29  34  36  39  40  41  42  43  44  45  46 0
 3-21G
 ****


