%nproc=1
%NoSave
%Mem=1900MB
#P OB98/GEN NMR

erre ene a

0 1
  C     -240.792     -47.655    -106.578
  O     -239.619     -46.872    -106.553
  P     -238.248     -47.407    -107.184
  C     -239.093     -46.862    -109.557
  O     -238.580     -47.868    -108.689
  C     -238.383     -46.919    -110.914
  O     -238.962     -45.900    -111.788
  C     -236.868     -46.646    -110.809
  O     -236.046     -47.640    -111.422
  C     -236.740     -45.245    -111.385
  O     -235.437     -44.928    -111.837
  C     -237.858     -45.236    -112.432
  N     -238.201     -43.885    -112.873
  C     -238.310     -43.675    -114.243
  O     -238.150     -44.544    -115.095
  N     -238.557     -42.388    -114.633
  C     -238.589     -41.296    -113.819
  O     -238.716     -40.158    -114.248
  C     -238.427     -41.576    -112.384
  C     -238.267     -42.837    -111.977
  O     -237.529     -48.432    -106.374
  O     -237.412     -46.063    -107.425
  H     -235.477     -44.056    -112.276
  H     -237.835     -45.419    -108.020
  H     -238.638     -42.220    -115.625
  H     -238.437     -40.728    -111.714
  H     -238.144     -43.073    -110.926
  H     -237.590     -45.826    -113.308
  H     -236.982     -44.534    -110.586
  H     -236.541     -46.641    -109.763
  H     -238.577     -47.901    -111.351
  H     -238.919     -45.884    -109.103
  H     -240.175     -46.986    -109.670
  P     -234.454     -47.729    -111.283
  C     -234.680     -48.824    -108.935
  O     -234.092     -47.811    -109.727
  O     -233.690     -46.706    -112.055
  O     -234.116     -49.202    -111.812
  H     -233.219     -49.212    -112.198
  H     -234.756     -48.463    -107.906
  H     -234.039     -49.709    -108.949
  H     -235.679     -49.087    -109.293
  H     -241.589     -47.118    -106.108
  H     -240.621     -48.571    -106.052
  H     -241.056     -47.870    -107.592

 3  4  5  6  7  8  9  10  11  12  13  23  28  29  30  31  32 0
 6-311+G(2d,p)
 ****
 33  34 0
 6-311+G(2d,p)
 ****
 1  2  14  15  16  17  18  19  20  21  22  24  25  26  27 0
 3-21G
 ****
 35  36  37  38  39  40  41  42  43  44  45 0
 3-21G
 ****


