%nproc=1
%NoSave
%Mem=1900MB
#P OB98/GEN NMR

erre ene a

0 1
  C     -894.580     399.309    -794.629
  O     -894.680     400.669    -795.006
  H     -893.580     399.124    -794.240
  H     -894.760     398.673    -795.505
  H     -895.310     399.071    -793.844
  P     -896.120     401.296    -795.300
  C     -896.200     400.284    -797.671
  O     -896.830     400.366    -796.398
  C     -897.210     399.915    -798.761
  O     -898.360     400.813    -798.662
  C     -896.630     400.087    -800.168
  O     -897.230     399.197    -801.111
  C     -896.990     401.514    -800.516
  O     -897.030     401.762    -801.922
  C     -898.370     401.644    -799.840
  N     -899.240     406.419    -801.414
  C     -898.720     405.344    -802.125
  N     -898.410     405.573    -803.420
  N     -898.520     404.172    -801.603
  C     -898.820     404.101    -800.288
  C     -899.290     405.100    -799.461
  C     -899.550     406.392    -800.068
  O     -900.000     407.384    -799.479
  N     -899.460     404.664    -798.164
  C     -899.080     403.405    -798.205
  N     -898.700     403.007    -799.466
  O     -895.790     402.640    -796.127
  O     -896.960     401.596    -794.081
  H     -896.160     401.589    -802.288
  H     -896.530     403.266    -796.053
  H     -899.400     407.294    -801.880
  H     -899.060     402.731    -797.340
  H     -899.160     401.280    -800.508
  H     -896.240     402.176    -800.089
  H     -898.360     406.521    -803.806
  H     -895.550     399.951    -800.189
  H     -897.760     404.905    -803.858
  H     -897.600     398.897    -798.584
  H     -895.420     399.536    -797.594
  H     -895.700     401.233    -797.918
  P     -896.620     397.730    -801.271
  C     -894.850     397.681    -803.245
  O     -895.140     397.801    -801.871
  O     -897.480     397.087    -802.481
  O     -896.700     396.887    -800.030
  H     -898.000     396.342    -802.149
  H     -893.794     397.761    -803.395
  H     -895.347     398.460    -803.784
  H     -895.189     396.730    -803.599

 6  7  8  9  10  11  12  13  14  15  26  29  33  34 0
 6-311+G(2d,p)
 ****
 36  38  39  40  41 0
 6-311+G(2d,p)
 ****
 1  2  3  4  5  16  17  18  19  20  21  22  23  24  25 0
 3-21G
 ****
 27  28  30  31  32  35  37  42  43  44  45  46  47 0
 3-21G
 ****
 48  49 0
 3-21G
 ****


