%nproc=1
%NoSave
%Mem=1900MB
#P OB98/GEN NMR

erre ene a

0 1
  C      246.972     157.986    -311.224
  O      245.978     157.005    -310.980
  P      244.438     157.435    -311.101
  C      244.015     157.544    -308.535
  O      244.053     158.245    -309.769
  C      242.752     156.683    -308.451
  O      242.838     155.812    -307.283
  C      241.448     157.489    -308.325
  O      240.419     156.763    -309.015
  C      241.185     157.453    -306.832
  O      239.835     157.738    -306.494
  C      241.635     156.021    -306.511
  N      241.862     155.799    -305.085
  C      241.142     154.778    -304.473
  O      240.334     154.058    -305.063
  N      241.332     154.640    -303.123
  C      242.082     155.461    -302.329
  O      242.119     155.353    -301.107
  C      242.819     156.523    -303.028
  C      242.679     156.645    -304.351
  O      243.660     156.046    -310.938
  O      244.081     158.130    -312.372
  H      239.699     157.471    -305.568
  H      243.384     155.706    -311.812
  H      240.826     153.897    -302.664
  H      243.440     157.179    -302.432
  H      243.198     157.432    -304.891
  H      240.890     155.302    -306.878
  H      241.820     158.191    -306.331
  H      241.525     158.511    -308.718
  H      242.712     156.032    -309.339
  H      244.010     158.263    -307.712
  H      244.912     156.925    -308.436
  P      239.439     157.589    -309.988
  C      237.937     158.127    -307.915
  O      238.617     158.601    -309.058
  O      238.369     156.455    -310.361
  O      240.129     158.181    -311.177
  H      238.104     155.922    -309.591
  H      238.472     157.296    -307.441
  H      236.935     157.789    -308.202
  H      237.840     158.941    -307.192
  H      247.941     157.549    -311.105
  H      246.856     158.791    -310.529
  H      246.868     158.358    -312.222

 3  4  5  6  7  8  9  10  11  12  13  23  28  29  30  31  32 0
 6-311+G(2d,p)
 ****
 33  34 0
 6-311+G(2d,p)
 ****
 1  2  14  15  16  17  18  19  20  21  22  24  25  26 0
 3-21G
 ****
 27  35  36  37  38  39  40  41  42  43  44  45 0
 3-21G
 ****


