%nproc=1
%NoSave
%Mem=1900MB
#P OB98/GEN NMR

erre ene a

0 1
  C      736.831     314.042     358.783
  O      738.022     313.575     358.175
  H      737.009     315.056     359.166
  H      736.560     313.394     359.619
  H      736.017     314.079     358.053
  P      737.932     312.181     357.396
  C      740.417     311.618     358.033
  O      739.052     311.215     358.016
  C      741.035     311.329     359.395
  O      740.247     311.893     360.461
  C      741.092     309.844     359.740
  O      742.061     309.148     358.991
  C      741.414     309.924     361.230
  O      742.808     310.193     361.452
  C      740.546     311.134     361.665
  N      739.333     310.727     362.368
  C      739.533     310.002     363.547
  O      740.676     309.752     363.941
  N      738.433     309.557     364.239
  C      737.240     309.828     363.805
  N      736.191     309.352     364.530
  C      736.985     310.618     362.578
  C      738.067     311.017     361.913
  O      738.535     312.545     355.960
  O      736.572     311.560     357.356
  H      743.289     309.414     361.115
  H      739.414     312.961     355.999
  H      735.982     310.821     362.259
  H      737.973     311.604     361.003
  H      741.122     311.799     362.325
  H      741.187     308.988     361.749
  H      740.102     309.385     359.636
  H      742.034     311.786     359.430
  H      736.403     308.796     365.349
  H      740.513     312.675     357.785
  H      735.228     309.467     364.269
  H      740.936     311.052     357.258
  P      741.611     308.056     357.897
  C      742.928     306.319     359.275
  O      741.688     306.630     358.635
  O      742.341     308.127     356.595
  O      740.033     308.287     357.777
  H      739.537     308.162     358.608
  H      742.862     305.352     359.729
  H      743.136     307.052     360.026
  H      743.714     306.319     358.549

 6  7  8  9  10  11  12  13  14  15  16  26  30  31  32  33  35 0
 6-311+G(2d,p)
 ****
 37  38 0
 6-311+G(2d,p)
 ****
 1  2  3  4  5  17  18  19  20  21  22  23  24  25 0
 3-21G
 ****
 27  28  29  34  36  39  40  41  42  43  44  45  46 0
 3-21G
 ****


