%nproc=1
%NoSave
%Mem=1900MB
#P OB98/GEN NMR

erre ene a

0 1
  C     -257.972     462.535     145.321
  O     -256.960     461.821     144.653
  P     -256.794     460.236     144.729
  C     -258.060     459.699     142.505
  O     -258.001     459.560     143.919
  C     -258.778     458.503     141.863
  O     -258.939     458.762     140.447
  C     -257.948     457.208     141.992
  O     -258.713     456.057     142.316
  C     -257.167     457.182     140.684
  O     -256.669     455.899     140.347
  C     -258.165     457.791     139.711
  N     -254.689     457.535     136.012
  C     -255.122     456.543     136.863
  N     -254.416     455.392     136.843
  N     -256.135     456.682     137.678
  C     -256.674     457.922     137.665
  C     -256.326     458.988     136.866
  C     -255.229     458.813     135.946
  O     -254.735     459.703     135.254
  N     -257.044     460.115     137.179
  C     -257.803     459.743     138.190
  N     -257.586     458.432     138.545
  O     -256.433     459.662     146.056
  O     -255.546     459.993     143.732
  H     -257.433     455.336     140.106
  H     -255.035     459.236     144.088
  H     -253.846     457.394     135.463
  H     -258.497     460.383     138.720
  H     -258.858     457.036     139.323
  H     -256.295     457.836     140.810
  H     -253.544     455.306     136.336
  H     -257.247     457.287     142.823
  H     -254.553     454.752     137.620
  H     -259.777     458.402     142.300
  H     -257.026     459.748     142.154
  H     -258.551     460.635     142.232
  P     -258.493     455.009     143.500
  C     -260.372     455.699     145.101
  O     -258.978     455.679     144.873
  O     -256.905     454.926     143.685
  O     -259.054     453.649     143.241
  H     -256.647     454.000     143.863
  H     -260.584     456.411     145.913
  H     -260.706     454.703     145.410
  H     -260.915     456.008     144.206
  H     -257.869     463.579     145.112
  H     -257.887     462.372     146.375
  H     -258.929     462.196     144.984

 3  4  5  6  7  8  9  10  11  12  23  26  30  31 0
 6-311+G(2d,p)
 ****
 33  35  36  37  38 0
 6-311+G(2d,p)
 ****
 1  2  13  14  15  16  17  18  19  20  21  22  24  25 0
 3-21G
 ****
 27  28  29  32  34  39  40  41  42  43  44  45  46  47  48  49 0
 3-21G
 ****


