%nproc=1
%NoSave
%Mem=1900MB
#P OB98/GEN NMR

erre ene a

0 1
  C        6.547     -89.869      -2.530
  O        6.251     -90.441      -3.797
  P        7.016     -91.786      -4.220
  C        6.878     -94.222      -3.341
  O        6.807     -92.839      -3.024
  C        7.599     -95.003      -2.243
  O        8.999     -94.613      -2.226
  C        7.048     -94.773      -0.832
  O        7.210     -95.999      -0.107
  C        7.993     -93.732      -0.261
  O        7.974     -93.709       1.163
  C        9.310     -94.188      -0.882
  N       14.037     -92.836       0.519
  C       13.349     -93.988       0.674
  N       12.093     -94.272       0.272
  C       11.542     -93.214      -0.346
  C       12.108     -91.966      -0.547
  C       13.424     -91.792      -0.086
  N       14.131     -90.624      -0.253
  N       11.222     -91.132      -1.196
  C       10.141     -91.860      -1.383
  N       10.297     -93.132      -0.909
  O        8.556     -91.370      -4.087
  O        6.706     -92.292      -5.586
  H        7.129     -93.316       1.452
  H        8.969     -91.335      -4.972
  H       13.880     -94.788       1.182
  H        9.229     -91.516      -1.850
  H        9.744     -95.044      -0.349
  H        7.707     -92.737      -0.619
  H        6.002     -94.452      -0.808
  H        7.565     -96.069      -2.500
  H        7.434     -94.339      -4.276
  H       15.110     -90.621      -0.019
  H       13.754     -89.908      -0.866
  H        5.868     -94.617      -3.486
  P        6.129     -96.316       1.033
  C        3.580     -96.787       0.980
  O        4.688     -96.166       0.356
  O        6.231     -95.046       2.003
  O        6.377     -97.592       1.769
  H        5.976     -95.298       2.909
  H        2.691     -96.173       0.812
  H        3.731     -96.905       2.057
  H        3.422     -97.772       0.531
  H        5.962     -88.983      -2.393
  H        7.587     -89.620      -2.485
  H        6.315     -90.573      -1.758

 3  4  5  6  7  8  9  10  11  12  22  25  29  30  31  32 0
 6-311+G(2d,p)
 ****
 33  36  37 0
 6-311+G(2d,p)
 ****
 1  2  13  14  15  16  17  18  19  20  21  23  24  26 0
 3-21G
 ****
 27  28  34  35  38  39  40  41  42  43  44  45  46  47  48 0
 3-21G
 ****


