%nproc=1
%NoSave
%Mem=1900MB
#P OB98/GEN NMR

erre ene a

0 1
  C       23.995     -61.953      -0.808
  O       23.360     -62.812       0.118
  H       23.595     -60.940      -0.718
  H       25.067     -61.928      -0.589
  H       23.851     -62.322      -1.828
  P       21.767     -62.961      -0.010
  C       21.448     -60.805       1.413
  O       21.190     -61.475       0.186
  C       20.910     -59.381       1.331
  O       21.307     -58.770       0.082
  C       19.388     -59.295       1.369
  O       18.871     -59.355       2.688
  C       19.167     -57.924       0.753
  O       19.458     -56.902       1.721
  C       20.221     -57.915      -0.366
  N       18.596     -56.589      -5.038
  C       19.086     -55.859      -4.012
  N       19.517     -56.290      -2.809
  C       19.415     -57.625      -2.718
  C       18.942     -58.502      -3.681
  C       18.512     -57.932      -4.893
  N       17.982     -58.670      -5.929
  N       18.970     -59.801      -3.212
  C       19.469     -59.708      -1.996
  N       19.722     -58.411      -1.639
  O       21.342     -63.694       1.348
  O       21.272     -63.661      -1.232
  H       19.588     -56.070       1.228
  H       20.430     -64.035       1.280
  H       19.135     -54.786      -4.179
  H       19.653     -60.544      -1.333
  H       20.635     -56.916      -0.546
  H       18.136     -57.771       0.422
  H       18.926     -60.054       0.726
  H       21.358     -58.795       2.145
  H       22.529     -60.782       1.586
  H       17.567     -58.159      -6.692
  H       17.779     -59.646      -5.775
  H       20.963     -61.345       2.232
  P       17.493     -60.152       2.907
  C       15.853     -58.149       3.126
  O       16.330     -59.217       2.316
  O       17.275     -60.058       4.489
  O       17.506     -61.564       2.419
  H       16.817     -60.853       4.825
  H       15.085     -57.619       2.602
  H       16.660     -57.482       3.348
  H       15.455     -58.543       4.038

 6  7  8  9  10  11  12  13  14  15  25  28  32  33  34  35 0
 6-311+G(2d,p)
 ****
 36  39  40 0
 6-311+G(2d,p)
 ****
 1  2  3  4  5  16  17  18  19  20  21  22  23  24 0
 3-21G
 ****
 26  27  29  30  31  37  38  41  42  43  44  45  46  47 0
 3-21G
 ****
 48 0
 3-21G
 ****


