%nproc=1
%NoSave
%Mem=1900MB
#P OB98/GEN NMR

erre ene a

0 1
  C      -20.986     -69.667      50.050
  O      -20.840     -69.559      51.470
  P      -21.474     -68.246      52.151
  C      -19.600     -67.394      53.737
  O      -20.836     -68.089      53.618
  C      -19.316     -66.975      55.181
  O      -20.353     -66.066      55.626
  C      -19.270     -68.132      56.187
  O      -18.255     -67.849      57.162
  C      -20.613     -68.039      56.890
  O      -20.591     -68.654      58.175
  C      -20.808     -66.524      56.910
  N      -24.442     -65.858      60.364
  C      -23.103     -66.151      60.537
  N      -22.680     -66.311      61.809
  N      -22.255     -66.275      59.550
  C      -22.812     -66.056      58.333
  C      -24.120     -65.748      58.034
  C      -25.055     -65.656      59.135
  O      -26.263     -65.450      59.043
  N      -24.304     -65.601      56.680
  C      -23.113     -65.826      56.165
  N      -22.178     -66.114      57.126
  O      -22.990     -68.675      52.430
  O      -21.402     -67.029      51.291
  H      -19.782     -68.345      58.625
  H      -23.599     -68.046      52.000
  H      -25.055     -65.793      61.158
  H      -22.878     -65.821      55.109
  H      -20.186     -66.051      57.678
  H      -21.376     -68.539      56.282
  H      -23.264     -66.166      62.618
  H      -19.094     -69.114      55.740
  H      -21.693     -66.483      61.958
  H      -18.371     -66.420      55.197
  H      -19.625     -66.502      53.102
  H      -18.798     -68.043      53.366
  P      -16.777     -68.372      56.823
  C      -16.398     -69.575      59.099
  O      -16.029     -68.518      58.234
  O      -16.078     -67.096      56.154
  O      -16.740     -69.571      55.935
  H      -15.370     -67.380      55.544
  H      -17.039     -70.309      58.605
  H      -16.931     -69.160      59.959
  H      -15.493     -70.076      59.450
  H      -20.529     -70.574      49.712
  H      -20.512     -68.832      49.578
  H      -22.026     -69.676      49.798

 3  4  5  6  7  8  9  10  11  12  23  26  30  31  33  0
 6-311+G(2d,p)
 ****
 35  36  37  38 0
 6-311+G(2d,p)
 ****
 1  2  13  14  15  16  17  18  19  20  21  22  24  25  27  28  29 0
 3-21G
 ****
 32  34  39  40  41  42  43  44  45  46  47  48  49 0
 3-21G
 ****


