%nproc=1
%NoSave
%Mem=1900MB
#P OB98/GEN NMR

erre ene a

0 1
  C     -208.029     577.287       0.039
  O     -207.591     577.265      -1.322
  P     -207.781     575.884      -2.115
  C     -209.975     574.634      -2.729
  O     -209.255     575.860      -2.740
  C     -211.303     574.794      -3.463
  O     -212.113     575.846      -2.883
  C     -211.149     575.175      -4.931
  O     -210.739     574.058      -5.703
  C     -212.548     575.687      -5.250
  O     -213.445     574.587      -5.475
  C     -212.933     576.405      -3.942
  N     -214.977     580.847      -5.453
  C     -215.420     579.570      -5.539
  N     -214.816     578.441      -5.117
  C     -213.638     578.723      -4.538
  C     -213.053     579.976      -4.376
  C     -213.775     581.071      -4.868
  N     -213.318     582.367      -4.792
  N     -211.832     579.864      -3.738
  C     -211.671     578.570      -3.542
  N     -212.734     577.842      -3.998
  O     -207.841     574.793      -0.946
  O     -206.679     575.594      -3.086
  H     -214.317     574.963      -5.713
  H     -207.021     574.261      -0.944
  H     -216.387     579.438      -6.016
  H     -210.798     578.116      -3.078
  H     -213.981     576.231      -3.665
  H     -212.582     576.324      -6.138
  H     -210.418     575.992      -5.036
  H     -211.857     573.846      -3.383
  H     -210.153     574.309      -1.701
  H     -213.861     583.089      -5.243
  H     -212.388     582.539      -4.437
  H     -209.357     573.861      -3.200
  P     -209.378     574.193      -6.546
  C     -207.027     574.997      -5.876
  O     -208.262     574.461      -5.417
  O     -209.555     575.631      -7.214
  O     -209.102     573.059      -7.476
  H     -209.871     576.292      -6.577
  H     -206.381     575.165      -5.010
  H     -207.197     575.949      -6.385
  H     -206.546     574.287      -6.552
  H     -207.850     578.256       0.456
  H     -207.489     576.553       0.599
  H     -209.076     577.069       0.080

 3  4  5  6  7  8  9  10  11  12  22  25  29  30  31  32 0
 6-311+G(2d,p)
 ****
 33  36  37 0
 6-311+G(2d,p)
 ****
 1  2  13  14  15  16  17  18  19  20  21  23  24  26 0
 3-21G
 ****
 27  28  34  35  38  39  40  41  42  43  44  45  46  47  48 0
 3-21G
 ****


