%nproc=1
%NoSave
%Mem=1900MB
#P OB98/GEN NMR

erre ene a

0 1
  C      -25.291    -437.076    -130.844
  O      -24.676    -437.058    -129.571
  H      -26.159    -437.737    -130.833
  H      -25.621    -436.062    -131.090
  H      -24.577    -437.409    -131.604
  P      -24.137    -438.468    -129.023
  C      -22.347    -437.308    -127.556
  O      -23.466    -438.183    -127.589
  C      -21.677    -437.364    -126.189
  O      -22.464    -436.562    -125.265
  C      -21.557    -438.782    -125.605
  O      -20.220    -439.032    -125.160
  C      -22.474    -438.763    -124.392
  O      -21.997    -439.569    -123.322
  C      -22.517    -437.284    -124.030
  N      -24.704    -437.479    -119.428
  C      -23.411    -437.538    -119.802
  N      -22.883    -437.383    -121.035
  C      -23.847    -437.109    -121.930
  C      -25.206    -436.991    -121.695
  C      -25.633    -437.212    -120.375
  N      -26.962    -437.210    -120.001
  N      -25.888    -436.710    -122.867
  C      -24.961    -436.702    -123.801
  N      -23.713    -436.951    -123.284
  O      -22.884    -438.776    -129.975
  O      -25.139    -439.572    -129.062
  H      -22.576    -439.402    -122.552
  H      -23.055    -439.605    -130.460
  H      -22.697    -437.746    -119.008
  H      -25.136    -436.565    -124.861
  H      -21.647    -436.989    -123.430
  H      -23.464    -439.130    -124.688
  H      -21.856    -439.559    -126.318
  H      -20.689    -436.893    -126.258
  H      -22.680    -436.282    -127.754
  H      -27.186    -437.490    -119.061
  H      -27.665    -437.122    -120.725
  H      -21.639    -437.603    -128.341
  P      -19.497    -440.332    -125.779
  C      -17.286    -439.204    -126.551
  O      -17.910    -440.125    -125.656
  O      -19.788    -440.199    -127.349
  O      -20.013    -441.622    -125.237
  H      -20.239    -440.998    -127.672
  H      -16.235    -439.171    -126.353
  H      -17.706    -438.230    -126.411
  H      -17.449    -439.521    -127.560

 6  7  8  9  10  11  12  13  14  15  25  28  32  33  34  35 0
 6-311+G(2d,p)
 ****
 36  39  40 0
 6-311+G(2d,p)
 ****
 1  2  3  4  5  16  17  18  19  20  21  22  23  24 0
 3-21G
 ****
 26  27  29  30  31  37  38  41  42  43  44  45  46  47  48 0
 3-21G
 ****


