%nproc=1
%NoSave
%Mem=1900MB
#P OB98/GEN NMR

erre ene a

0 1
  C      336.861    -899.370     245.062
  O      336.929    -898.120     244.393
  H      336.911    -899.180     246.136
  H      337.697    -900.000     244.774
  H      335.913    -899.860     244.840
  P      336.937    -898.110     242.788
  C      339.457    -897.790     242.307
  O      338.358    -898.690     242.325
  C      340.236    -897.920     241.002
  O      339.342    -897.530     239.912
  C      341.477    -897.010     240.941
  O      342.673    -897.700     240.615
  C      341.032    -895.860     240.031
  O      342.093    -895.210     239.364
  C      340.010    -896.540     239.109
  N      339.036    -895.610     238.533
  C      339.300    -895.110     237.265
  O      340.267    -895.410     236.574
  N      338.361    -894.240     236.759
  C      337.234    -893.810     237.402
  O      336.437    -893.020     236.909
  C      337.031    -894.350     238.761
  C      337.925    -895.210     239.253
  O      336.564    -896.810     242.161
  O      335.918    -899.270     242.391
  H      342.724    -895.910     239.097
  H      335.085    -898.870     242.076
  H      338.534    -893.890     235.839
  H      336.151    -894.020     239.301
  H      337.801    -895.620     240.257
  H      340.506    -897.040     238.285
  H      340.525    -895.110     240.641
  H      341.691    -896.600     241.943
  H      340.503    -898.970     240.841
  H      340.105    -898.020     243.162
  H      339.086    -896.760     242.414
  P      343.864    -898.020     241.626
  C      345.693    -896.190     241.127
  O      344.625    -896.630     241.937
  O      344.714    -899.200     241.288
  O      343.115    -898.340     243.016
  H      343.680    -898.990     243.479
  H      346.059    -895.255     241.496
  H      345.350    -896.066     240.121
  H      346.480    -896.915     241.149

 6  7  8  9  10  11  12  13  14  15  16  26  31  32  33  34  35 0
 6-311+G(2d,p)
 ****
 36  37 0
 6-311+G(2d,p)
 ****
 1  2  3  4  5  17  18  19  20  21  22  23  24  25 0
 3-21G
 ****
 27  28  29  30  38  39  40  41  42  43  44  45 0
 3-21G
 ****


