%nproc=1
%NoSave
%Mem=1900MB
#P OB98/GEN NMR

erre ene a

0 1
  C     -287.016     163.411     692.005
  O     -287.440     162.110     691.677
  H     -287.541     164.125     691.356
  H     -285.943     163.525     691.849
  H     -287.274     163.647     693.047
  P     -286.770     160.870     692.446
  C     -288.345     160.554     694.472
  O     -287.096     161.057     694.003
  C     -288.116     159.368     695.411
  O     -287.163     159.787     696.432
  C     -289.409     158.921     696.115
  O     -289.673     157.526     695.967
  C     -289.243     159.455     697.535
  O     -289.952     158.736     698.526
  C     -287.723     159.472     697.732
  N     -287.253     160.427     698.726
  C     -287.024     159.945     700.016
  O     -287.150     158.772     700.362
  N     -286.611     160.880     700.920
  C     -286.413     162.216     700.692
  O     -286.027     162.995     701.550
  C     -286.704     162.664     699.325
  C     -287.099     161.774     698.418
  O     -285.336     160.614     692.129
  O     -287.693     159.622     692.040
  H     -290.903     158.958     698.412
  H     -287.237     159.088     691.353
  H     -286.410     160.534     701.858
  H     -286.573     163.714     699.112
  H     -287.329     162.069     697.398
  H     -287.358     158.477     698.011
  H     -289.614     160.493     697.554
  H     -290.286     159.388     695.659
  H     -287.658     158.547     694.844
  H     -288.926     160.239     693.598
  H     -288.888     161.346     695.001
  P     -290.623     156.885     694.850
  C     -288.804     155.167     694.051
  O     -289.693     156.228     693.721
  O     -291.740     157.756     694.381
  O     -291.264     155.612     695.589
  H     -292.176     155.507     695.222
  H     -288.272     154.862     693.174
  H     -289.363     154.339     694.435
  H     -288.108     155.502     694.792

 6  7  8  9  10  11  12  13  14  15  16  26  31  32  33  34  35 0
 6-311+G(2d,p)
 ****
 36  37 0
 6-311+G(2d,p)
 ****
 1  2  3  4  5  17  18  19  20  21  22  23  24  25 0
 3-21G
 ****
 27  28  29  30  38  39  40  41  42  43  44  45 0
 3-21G
 ****


