%nproc=1
%NoSave
%Mem=1900MB
#P OB98/GEN NMR

erre ene a

0 1
  C     -331.345    -953.072     145.628
  O     -330.022    -953.283     146.130
  P     -328.887    -953.691     145.066
  C     -326.964    -952.262     146.086
  O     -327.820    -952.496     144.975
  C     -327.374    -950.969     146.811
  O     -328.656    -951.092     147.433
  C     -326.423    -950.589     147.930
  O     -325.241    -949.993     147.409
  C     -327.276    -949.624     148.759
  O     -327.137    -948.265     148.309
  C     -328.714    -950.145     148.503
  N     -329.328    -950.705     149.693
  C     -329.185    -949.969     150.876
  O     -328.542    -948.916     150.862
  N     -329.751    -950.457     152.019
  C     -330.384    -951.582     152.006
  N     -330.909    -952.021     153.177
  C     -330.537    -952.408     150.791
  C     -329.987    -951.917     149.670
  O     -329.654    -953.595     143.654
  O     -328.302    -955.045     145.282
  H     -326.166    -948.122     148.203
  H     -329.295    -954.255     143.037
  H     -331.057    -953.351     150.820
  H     -330.045    -952.464     148.731
  H     -329.350    -949.318     148.151
  H     -326.986    -949.648     149.815
  H     -326.168    -951.470     148.530
  H     -327.414    -950.154     146.065
  H     -330.787    -951.435     154.003
  H     -325.921    -952.195     145.759
  H     -331.419    -952.890     153.271
  H     -327.026    -953.120     146.760
  P     -323.939    -950.905     147.276
  C     -323.200    -950.097     144.963
  O     -323.749    -951.166     145.715
  O     -324.480    -952.340     147.785
  O     -322.727    -950.481     148.043
  H     -323.749    -952.968     147.849
  H     -322.936    -950.464     143.973
  H     -322.298    -949.711     145.442
  H     -323.938    -949.293     144.860
  H     -331.995    -952.808     146.436
  H     -331.698    -953.970     145.165
  H     -331.331    -952.281     144.908

 3  4  5  6  7  8  9  10  11  12  13  21  23  27  28  29  30  32 0
 6-311+G(2d,p)
 ****
 34  35 0
 6-311+G(2d,p)
 ****
 1  2  14  15  16  17  18  19  20  22  24  25  26 0
 3-21G
 ****
 31  33  36  37  38  39  40  41  42  43  44  45  46 0
 3-21G
 ****


