%nproc=1
%NoSave
%Mem=1900MB
#P OB98/GEN NMR

erre ene a

0 1
  C     -267.308     648.371      94.799
  O     -266.600     649.080      93.786
  P     -266.298     650.639      94.050
  C     -267.780     651.182      91.985
  O     -266.522     651.365      92.633
  C     -267.851     651.999      90.709
  O     -267.839     653.409      91.031
  C     -266.680     651.795      89.750
  O     -266.839     650.620      88.966
  C     -266.774     653.052      88.894
  O     -267.771     652.865      87.871
  C     -267.240     654.110      89.904
  N     -263.760     657.589      88.696
  C     -264.710     656.972      87.903
  N     -264.753     657.353      86.608
  N     -265.535     656.051      88.344
  C     -265.412     655.805      89.658
  C     -264.509     656.350      90.561
  C     -263.559     657.325      90.047
  O     -262.665     657.860      90.687
  N     -264.696     655.863      91.821
  C     -265.731     655.045      91.709
  N     -266.175     654.952      90.413
  O     -264.712     650.671      94.240
  O     -267.007     651.238      95.217
  H     -267.906     653.727      87.445
  H     -264.456     651.449      94.776
  H     -263.163     658.297      88.315
  H     -266.172     654.500      92.535
  H     -268.021     654.750      89.485
  H     -265.836     653.295      88.390
  H     -264.230     658.134      86.249
  H     -265.725     651.790      90.290
  H     -265.464     656.934      86.019
  H     -268.804     651.780      90.209
  H     -268.585     651.502      92.664
  H     -267.912     650.115      91.764
  P     -265.683     649.511      89.094
  C     -264.995     649.811      86.597
  O     -265.490     648.940      87.618
  O     -266.404     648.327      89.881
  O     -264.445     649.991      89.787
  H     -265.736     647.791      90.370
  H     -264.252     650.499      87.002
  H     -265.828     650.364      86.167
  H     -264.529     649.204      85.824
  H     -267.440     647.353      94.496
  H     -268.265     648.825      94.949
  H     -266.751     648.402      95.712

 3  4  5  6  7  8  9  10  11  12  23  26  30  31  33  0
 6-311+G(2d,p)
 ****
 35  36  37  38 0
 6-311+G(2d,p)
 ****
 1  2  13  14  15  16  17  18  19  20  21  22  24  25  27  28  29 0
 3-21G
 ****
 32  34  39  40  41  42  43  44  45  46  47  48  49 0
 3-21G
 ****


