%nproc=1
%NoSave
%Mem=1900MB
#P OB98/GEN NMR

erre ene a

0 1
  C     -234.577    -707.161      68.703
  O     -234.956    -706.852      70.038
  P     -234.752    -707.988      71.161
  C     -236.714    -709.352      70.120
  O     -235.365    -709.349      70.561
  C     -237.269    -710.782      70.138
  O     -238.718    -710.721      69.993
  C     -236.747    -711.690      69.028
  O     -236.699    -713.030      69.551
  C     -237.833    -711.608      67.956
  O     -237.819    -712.716      67.055
  C     -239.080    -711.524      68.846
  N     -243.575    -712.356      66.672
  C     -242.659    -713.256      67.203
  N     -243.046    -714.555      67.201
  N     -241.501    -712.916      67.680
  C     -241.266    -711.574      67.631
  C     -242.073    -710.589      67.099
  C     -243.378    -710.976      66.599
  O     -244.248    -710.203      66.203
  N     -241.466    -709.365      67.147
  C     -240.327    -709.596      67.788
  N     -240.186    -710.912      68.140
  O     -235.797    -707.559      72.288
  O     -233.357    -708.132      71.695
  H     -236.996    -712.646      66.529
  H     -235.377    -707.009      72.975
  H     -244.462    -712.676      66.331
  H     -239.588    -708.850      68.015
  H     -239.409    -712.507      69.199
  H     -237.702    -710.687      67.378
  H     -243.928    -714.881      66.873
  H     -235.762    -711.408      68.645
  H     -242.400    -715.220      67.608
  H     -237.059    -711.225      71.118
  H     -236.754    -708.985      69.090
  H     -237.322    -708.700      70.748
  P     -235.332    -713.866      69.365
  C     -236.376    -714.995      67.281
  O     -235.259    -714.321      67.835
  O     -235.666    -715.231      70.141
  O     -234.117    -713.218      69.928
  H     -234.840    -715.591      70.532
  H     -236.345    -714.883      66.186
  H     -237.326    -714.586      67.643
  H     -236.324    -716.067      67.519
  H     -234.769    -706.317      68.073
  H     -235.143    -708.000      68.357
  H     -233.534    -707.398      68.674

 3  4  5  6  7  8  9  10  11  12  23  26  30  31 0
 6-311+G(2d,p)
 ****
 33  35  36  37  38 0
 6-311+G(2d,p)
 ****
 1  2  13  14  15  16  17  18  19  20  21  22  24  25 0
 3-21G
 ****
 27  28  29  32  34  39  40  41  42  43  44  45  46  47  48  49 0
 3-21G
 ****


