%nproc=1
%NoSave
%Mem=1900MB
#P OB98/GEN NMR

erre ene a

0 1
  C     1067.876      50.434     481.031
  O     1068.254      51.797     480.799
  P     1067.449      52.918     481.622
  C     1066.799      54.275     479.496
  O     1067.471      54.265     480.755
  C     1066.869      55.667     478.862
  O     1066.203      56.641     479.676
  C     1068.276      56.195     478.657
  O     1068.900      55.621     477.504
  C     1068.016      57.679     478.466
  O     1067.646      57.933     477.091
  C     1066.826      57.930     479.391
  N     1066.525      62.123     482.230
  C     1066.020      61.869     480.969
  N     1065.306      62.849     480.387
  N     1066.194      60.734     480.324
  C     1066.900      59.830     481.025
  C     1067.470      59.957     482.289
  C     1067.291      61.232     482.970
  O     1067.744      61.520     484.067
  N     1068.095      58.811     482.693
  C     1067.906      57.963     481.693
  N     1067.191      58.538     480.663
  O     1068.440      53.252     482.841
  O     1066.105      52.474     482.098
  H     1068.469      57.876     476.569
  H     1067.937      53.575     483.605
  H     1066.371      63.002     482.663
  H     1068.251      56.945     481.659
  H     1066.051      58.564     478.925
  H     1068.901      58.299     478.677
  H     1065.071      63.706     480.843
  H     1068.886      56.032     479.569
  H     1064.893      62.671     479.482
  H     1066.356      55.612     477.891
  H     1065.743      53.991     479.636
  H     1067.251      53.521     478.847
  P     1069.531      54.165     477.662
  C     1071.770      55.307     477.042
  O     1070.919      54.200     476.862
  O     1068.592      53.258     476.743
  O     1069.600      53.656     479.067
  H     1068.559      52.340     477.071
  H     1071.844      55.581     478.094
  H     1071.410      56.168     476.460
  H     1072.773      55.041     476.682
  H     1068.481      49.789     480.429
  H     1066.846      50.301     480.773
  H     1068.019      50.195     482.064

 3  4  5  6  7  8  9  10  11  12  23  26  30  31  33  0
 6-311+G(2d,p)
 ****
 35  36  37  38 0
 6-311+G(2d,p)
 ****
 1  2  13  14  15  16  17  18  19  20  21  22  24  25  27  28  29 0
 3-21G
 ****
 32  34  39  40  41  42  43  44  45  46  47  48  49 0
 3-21G
 ****


