%nproc=1
%NoSave
%Mem=1900MB
#P OB98/GEN NMR

erre ene a

0 1
  C     -351.907     323.621     970.052
  O     -350.504     323.859     969.947
  P     -349.528     322.996     970.875
  C     -347.442     323.626     969.423
  O     -348.072     323.635     970.697
  C     -346.111     324.398     969.467
  O     -346.362     325.799     969.735
  C     -345.188     323.942     970.591
  O     -344.572     322.700     970.270
  C     -344.243     325.113     970.664
  O     -343.238     325.047     969.631
  C     -345.183     326.304     970.400
  N     -345.537     327.051     971.616
  C     -344.806     328.220     971.850
  O     -343.896     328.593     971.105
  N     -345.139     328.916     972.972
  C     -346.098     328.568     973.883
  O     -346.373     329.233     974.861
  C     -346.807     327.304     973.610
  C     -346.502     326.610     972.493
  O     -349.463     321.621     970.053
  O     -350.017     322.862     972.279
  H     -349.495     321.754     969.078
  H     -342.774     324.210     969.749
  H     -344.643     329.771     973.152
  H     -347.549     326.974     974.323
  H     -346.999     325.656     972.288
  H     -344.713     327.001     969.693
  H     -343.703     325.166     971.634
  H     -345.731     323.840     971.535
  H     -345.622     324.297     968.506
  H     -348.086     324.092     968.680
  H     -347.285     322.585     969.112
  P     -344.941     321.444     971.226
  C     -344.250     319.833     969.269
  O     -344.132     320.185     970.635
  O     -346.457     321.164     970.800
  O     -344.729     321.718     972.672
  H     -346.602     321.181     969.841
  H     -343.408     319.200     969.004
  H     -344.246     320.718     968.641
  H     -345.173     319.273     969.102
  H     -352.430     324.266     969.377
  H     -352.228     323.817     971.054
  H     -352.115     322.601     969.804

 3  4  5  6  7  8  9  10  11  12  13  24  28  29  30  31  32 0
 6-311+G(2d,p)
 ****
 33  34 0
 6-311+G(2d,p)
 ****
 1  2  14  15  16  17  18  19  20  21  22  23  25  26  27 0
 3-21G
 ****
 35  36  37  38  39  40  41  42  43  44  45 0
 3-21G
 ****


