%nproc=1
%NoSave
%Mem=1900MB
#P OB98/GEN NMR

erre ene a

0 1
  C      144.104     500.571     289.938
  O      145.195     500.961     289.127
  H      144.459     499.839     290.670
  H      143.325     500.104     289.331
  H      143.704     501.437     290.468
  P      144.873     501.956     287.907
  C      147.047     501.365     286.609
  O      145.620     501.375     286.615
  C      147.546     500.315     285.624
  O      147.438     498.995     286.214
  C      146.735     500.230     284.336
  O      147.074     501.260     283.415
  C      147.120     498.859     283.830
  O      148.351     498.878     283.093
  C      147.273     498.046     285.141
  N      146.134     497.161     285.365
  C      146.044     496.068     284.500
  O      146.853     495.848     283.593
  N      144.952     495.258     284.674
  C      143.946     495.447     285.580
  O      142.973     494.710     285.651
  C      144.090     496.623     286.456
  C      145.156     497.412     286.307
  O      145.709     503.268     288.276
  O      143.422     502.255     287.712
  H      145.107     503.969     288.582
  H      148.632     497.944     283.011
  H      144.880     494.465     284.063
  H      143.309     496.806     287.178
  H      145.276     498.294     286.932
  H      148.183     497.443     285.106
  H      146.354     498.450     283.166
  H      145.660     500.242     284.567
  H      148.601     500.511     285.399
  H      147.420     501.115     287.612
  H      147.405     502.360     286.338
  P      146.375     501.230     281.968
  C      148.086     502.883     280.835
  O      147.538     501.583     280.916
  O      145.479     502.555     282.045
  O      145.616     499.969     281.706
  H      145.862     503.215     282.649
  H      148.841     502.905     280.077
  H      148.519     503.147     281.777
  H      147.313     503.581     280.590

 6  7  8  9  10  11  12  13  14  15  16  27  31  32  33  34  35 0
 6-311+G(2d,p)
 ****
 36  37 0
 6-311+G(2d,p)
 ****
 1  2  3  4  5  17  18  19  20  21  22  23  24  25 0
 3-21G
 ****
 26  28  29  30  38  39  40  41  42  43  44  45 0
 3-21G
 ****


