%nproc=1
%NoSave
%Mem=1900MB
#P OB98/GEN NMR

erre ene a

0 1
  C        3.378     319.284     -35.228
  O        4.248     318.960     -34.152
  P        4.609     317.418     -33.926
  C        3.169     315.250     -33.743
  O        3.242     316.653     -33.574
  C        2.175     314.658     -32.739
  O        2.624     314.897     -31.391
  C        0.784     315.265     -32.831
  O        0.050     314.723     -33.913
  C        0.202     314.911     -31.465
  O       -0.326     313.571     -31.463
  C        1.445     315.008     -30.554
  N        1.459     316.234     -29.757
  C        0.398     316.394     -28.868
  O       -0.519     315.571     -28.764
  N        0.401     317.542     -28.130
  C        1.311     318.564     -28.230
  O        1.230     319.598     -27.581
  C        2.393     318.346     -29.212
  C        2.416     317.223     -29.918
  O        5.415     317.414     -32.543
  O        5.392     316.793     -35.030
  H       -0.690     313.419     -30.568
  H        6.115     316.733     -32.571
  H       -0.344     317.669     -27.463
  H        3.134     319.135     -29.311
  H        3.193     317.049     -30.649
  H        1.480     314.150     -29.869
  H       -0.616     315.579     -31.180
  H        0.858     316.362     -32.911
  H        2.128     313.566     -32.896
  H        4.161     314.815     -33.584
  H        2.856     315.027     -34.769
  P       -0.656     315.778     -34.913
  C       -2.285     317.761     -34.411
  O       -1.784     316.490     -34.031
  O       -1.447     314.776     -35.882
  O        0.324     316.675     -35.597
  H       -1.747     313.973     -35.421
  H       -2.334     317.858     -35.501
  H       -1.640     318.541     -34.000
  H       -3.286     317.879     -33.998
  H        3.227     320.343     -35.258
  H        2.438     318.793     -35.087
  H        3.814     318.960     -36.150

 3  4  5  6  7  8  9  10  11  12  13  23  28  29  30  31  32 0
 6-311+G(2d,p)
 ****
 33  34 0
 6-311+G(2d,p)
 ****
 1  2  14  15  16  17  18  19  20  21  22  24  25  26 0
 3-21G
 ****
 27  35  36  37  38  39  40  41  42  43  44  45 0
 3-21G
 ****


