%nproc=1
%NoSave
%Mem=1900MB
#P OB98/GEN NMR

erre ene a

0 1
  C      120.440    -105.001       2.736
  O      119.741    -104.510       3.863
  H      121.385    -104.457       2.643
  H      119.853    -104.844       1.827
  H      120.655    -106.066       2.860
  P      118.272    -105.117       4.108
  C      117.429    -103.050       2.753
  O      117.396    -104.459       2.932
  C      116.393    -102.639       1.712
  O      116.745    -103.156       0.411
  C      114.988    -103.163       1.992
  O      114.303    -102.411       2.981
  C      114.359    -102.999       0.620
  O      114.047    -101.611       0.395
  C      115.514    -103.466      -0.296
  N      115.450    -104.892      -0.621
  C      115.031    -105.224      -1.914
  O      114.726    -104.344      -2.720
  N      114.934    -106.554      -2.258
  C      115.238    -107.469      -1.392
  N      115.110    -108.768      -1.782
  C      115.699    -107.164      -0.025
  C      115.780    -105.872       0.289
  O      117.754    -104.336       5.406
  O      118.184    -106.603       4.206
  H      113.957    -101.495      -0.568
  H      116.803    -104.549       5.568
  H      115.931    -107.963       0.666
  H      116.109    -105.572       1.278
  H      115.524    -102.894      -1.233
  H      113.429    -103.561       0.505
  H      114.998    -104.229       2.248
  H      116.402    -101.541       1.641
  H      114.733    -108.946      -2.702
  H      118.433    -102.768       2.420
  H      115.149    -109.539      -1.127
  H      117.212    -102.546       3.701
  P      113.194    -103.171       3.859
  C      111.207    -102.395       2.376
  O      111.959    -103.488       2.883
  O      112.625    -102.012       4.803
  O      113.702    -104.338       4.647
  H      112.444    -102.345       5.702
  H      110.424    -102.762       1.746
  H      111.849    -101.753       1.810
  H      110.782    -101.846       3.190

 6  7  8  9  10  11  12  13  14  15  16  26  30  31  32  33  35 0
 6-311+G(2d,p)
 ****
 37  38 0
 6-311+G(2d,p)
 ****
 1  2  3  4  5  17  18  19  20  21  22  23  24  25 0
 3-21G
 ****
 27  28  29  34  36  39  40  41  42  43  44  45  46 0
 3-21G
 ****


