%nproc=1
%NoSave
%Mem=1900MB
#P OB98/GEN NMR

erre ene a

0 1
  C     -394.517      -1.893    -372.200
  O     -394.171      -1.415    -370.914
  H     -395.526      -2.308    -372.161
  H     -393.821      -2.684    -372.496
  H     -394.495      -1.084    -372.936
  P     -392.874      -0.474    -370.819
  C     -390.414      -1.017    -370.191
  O     -391.598      -1.455    -370.836
  C     -389.323      -2.083    -370.298
  O     -389.631      -3.208    -369.440
  C     -389.146      -2.658    -371.701
  O     -388.306      -1.826    -372.499
  C     -388.456      -3.974    -371.382
  O     -387.065      -3.738    -371.076
  C     -389.202      -4.425    -370.114
  N     -390.842      -8.863    -371.949
  C     -389.567      -8.330    -371.928
  N     -388.588      -9.081    -372.483
  N     -389.271      -7.160    -371.411
  C     -390.352      -6.512    -370.919
  C     -391.665      -6.931    -370.881
  C     -391.970      -8.234    -371.441
  O     -393.081      -8.758    -371.469
  N     -392.482      -5.995    -370.299
  C     -391.669      -4.999    -369.997
  N     -390.365      -5.261    -370.356
  O     -392.928       0.050    -369.306
  O     -392.833       0.660    -371.782
  H     -386.634      -3.468    -371.909
  H     -393.264       0.965    -369.299
  H     -391.018      -9.766    -372.359
  H     -391.969      -4.081    -369.517
  H     -388.554      -4.974    -369.423
  H     -388.483      -4.678    -372.214
  H     -388.752      -9.982    -372.919
  H     -390.109      -2.852    -372.190
  H     -387.651      -8.708    -372.482
  H     -388.382      -1.646    -369.935
  H     -390.628      -0.824    -369.136
  H     -390.068      -0.085    -370.664
  P     -388.767      -1.516    -374.007
  C     -388.163      -2.611    -376.277
  O     -388.384      -2.803    -374.893
  O     -387.707      -0.410    -374.473
  O     -390.167      -1.024    -374.160
  H     -388.152       0.456    -374.584
  H     -387.919      -3.548    -376.733
  H     -387.354      -1.925    -376.417
  H     -389.049      -2.215    -376.728

 6  7  8  9  10  11  12  13  14  15  26  29  33  34 0
 6-311+G(2d,p)
 ****
 36  38  39  40  41 0
 6-311+G(2d,p)
 ****
 1  2  3  4  5  16  17  18  19  20  21  22  23  24  25 0
 3-21G
 ****
 27  28  30  31  32  35  37  42  43  44  45  46  47 0
 3-21G
 ****
 48  49 0
 3-21G
 ****


