%nproc=1
%NoSave
%Mem=1900MB
#P OB98/GEN NMR

erre ene a

0 1
  C     -480.933     364.685      28.952
  O     -481.424     364.582      30.274
  H     -480.072     365.349      28.947
  H     -481.704     365.095      28.289
  H     -480.620     363.699      28.579
  P     -482.703     363.653      30.540
  C     -484.336     365.133      29.194
  O     -483.978     364.623      30.472
  C     -485.843     365.372      29.126
  O     -486.562     364.162      29.406
  C     -486.339     366.424      30.133
  O     -486.108     367.732      29.639
  C     -487.821     366.060      30.204
  O     -488.490     366.553      29.027
  C     -487.763     364.518      30.174
  N     -489.829     364.220      34.792
  C     -490.170     365.022      33.716
  N     -491.179     365.900      33.920
  N     -489.565     364.987      32.561
  C     -488.528     364.106      32.524
  C     -488.086     363.265      33.535
  C     -488.817     363.272      34.791
  O     -488.556     362.566      35.766
  N     -486.977     362.570      33.152
  C     -486.761     362.944      31.909
  N     -487.664     363.899      31.481
  O     -482.657     362.794      31.781
  O     -482.835     362.774      29.211
  H     -487.951     366.283      28.261
  H     -482.364     361.932      29.296
  H     -490.329     364.309      35.659
  H     -485.971     362.571      31.269
  H     -488.621     364.077      29.662
  H     -488.320     366.477      31.068
  H     -491.475     366.162      34.853
  H     -485.900     366.274      31.122
  H     -491.403     366.535      33.166
  H     -486.094     365.679      28.105
  H     -484.049     364.380      28.450
  H     -483.801     366.066      28.990
  P     -485.006     368.697      30.314
  C     -486.179     368.768      32.613
  O     -485.801     369.488      31.459
  O     -484.252     369.544      29.368
  O     -484.080     367.695      31.168
  H     -483.331     367.318      30.648
  H     -486.698     369.419      33.285
  H     -485.305     368.381      33.094
  H     -486.821     367.958      32.334

 6  7  8  9  10  11  12  13  14  15  26  29  33  34 0
 6-311+G(2d,p)
 ****
 36  38  39  40  41 0
 6-311+G(2d,p)
 ****
 1  2  3  4  5  16  17  18  19  20  21  22  23  24  25 0
 3-21G
 ****
 27  28  30  31  32  35  37  42  43  44  45  46  47 0
 3-21G
 ****
 48  49 0
 3-21G
 ****


