%nproc=1
%NoSave
%Mem=1900MB
#P OB98/GEN NMR

erre ene a

0 1
  C      316.809    -231.001     -24.360
  O      316.836    -229.776     -25.074
  P      315.677    -228.681     -24.887
  C      313.220    -228.506     -25.622
  O      314.415    -229.274     -25.679
  C      312.005    -229.413     -25.798
  O      311.981    -230.361     -24.704
  C      310.645    -228.720     -25.758
  O      310.228    -228.160     -26.996
  C      309.739    -229.895     -25.410
  O      309.490    -230.683     -26.589
  C      310.598    -230.681     -24.415
  N      307.532    -231.647     -20.435
  C      307.596    -232.176     -21.676
  N      308.429    -231.853     -22.688
  C      309.292    -230.898     -22.299
  C      309.353    -230.267     -21.070
  C      308.416    -230.677     -20.104
  N      308.369    -230.150     -18.833
  N      310.363    -229.325     -21.053
  C      310.906    -229.400     -22.249
  N      310.301    -230.342     -23.036
  O      316.075    -227.292     -25.246
  O      315.241    -228.826     -23.356
  H      310.356    -231.011     -26.899
  H      314.738    -228.038     -23.077
  H      306.879    -232.965     -21.890
  H      311.733    -228.793     -22.591
  H      310.483    -231.766     -24.527
  H      308.764    -229.582     -25.026
  H      310.597    -227.978     -24.951
  H      312.127    -229.977     -26.731
  H      313.243    -227.775     -26.438
  H      307.753    -230.595     -18.170
  H      309.126    -229.550     -18.537
  H      313.175    -227.965     -24.674
  P      308.965    -227.165     -26.963
  C      306.522    -227.458     -26.075
  O      307.720    -228.065     -26.506
  O      308.764    -226.378     -28.210
  O      309.260    -226.262     -25.675
  H      309.222    -226.727     -24.824
  H      305.755    -228.231     -25.967
  H      306.171    -226.724     -26.807
  H      306.670    -226.974     -25.108
  H      317.665    -231.587     -24.624
  H      315.918    -231.539     -24.608
  H      316.824    -230.802     -23.309

 3  4  5  6  7  8  9  10  11  12  22  25  29  30  31  32 0
 6-311+G(2d,p)
 ****
 33  36  37 0
 6-311+G(2d,p)
 ****
 1  2  13  14  15  16  17  18  19  20  21  23  24  26 0
 3-21G
 ****
 27  28  34  35  38  39  40  41  42  43  44  45  46  47  48 0
 3-21G
 ****


