%nproc=1
%NoSave
%Mem=1900MB
#P OB98/GEN NMR

erre ene a

0 1
  C      -18.832     300.785    -385.148
  O      -20.193     300.572    -384.829
  H      -18.233     300.011    -384.658
  H      -18.501     301.762    -384.788
  H      -18.680     300.714    -386.228
  P      -21.277     301.623    -385.364
  C      -21.643     300.427    -387.629
  O      -21.182     301.598    -386.962
  C      -22.029     300.747    -389.070
  O      -23.014     301.797    -389.106
  C      -20.870     301.235    -389.933
  O      -20.028     300.159    -390.292
  C      -21.631     301.882    -391.078
  O      -22.117     300.893    -391.999
  C      -22.805     302.551    -390.322
  N      -22.581     303.963    -390.026
  C      -23.256     304.876    -390.842
  O      -23.981     304.479    -391.755
  N      -23.078     306.218    -390.608
  C      -22.331     306.613    -389.627
  N      -22.201     307.953    -389.443
  C      -21.629     305.681    -388.722
  C      -21.785     304.385    -388.985
  O      -21.220     302.994    -384.762
  O      -22.680     300.909    -385.073
  H      -22.722     301.364    -392.604
  H      -23.039     301.201    -384.215
  H      -21.024     306.055    -387.910
  H      -21.304     303.634    -388.369
  H      -23.730     302.470    -390.907
  H      -21.008     302.572    -391.650
  H      -20.311     302.015    -389.405
  H      -22.491     299.848    -389.504
  H      -22.720     308.555    -390.079
  H      -22.518     300.067    -387.075
  H      -21.781     308.370    -388.626
  H      -20.878     299.643    -387.608
  P      -18.580     300.406    -390.935
  C      -17.358     300.916    -388.731
  O      -17.842     301.443    -389.956
  O      -18.582     300.793    -392.373
  O      -17.802     299.040    -390.640
  H      -18.090     298.335    -391.272
  H      -16.889     301.696    -388.168
  H      -16.646     300.143    -388.932
  H      -18.174     300.511    -388.170

 6  7  8  9  10  11  12  13  14  15  16  26  30  31  32  33  35 0
 6-311+G(2d,p)
 ****
 37  38 0
 6-311+G(2d,p)
 ****
 1  2  3  4  5  17  18  19  20  21  22  23  24  25 0
 3-21G
 ****
 27  28  29  34  36  39  40  41  42  43  44  45  46 0
 3-21G
 ****


