%nproc=1
%NoSave
%Mem=1900MB
#P OB98/GEN NMR

erre ene a

0 1
  C      616.939     382.273    -186.646
  O      618.226     382.750    -187.055
  P      618.378     384.303    -187.426
  C      620.970     384.068    -187.363
  O      619.824     384.519    -188.084
  C      622.075     383.655    -188.334
  O      621.676     382.537    -189.166
  C      622.488     384.762    -189.306
  O      623.420     385.658    -188.706
  C      623.172     383.958    -190.398
  O      624.517     383.622    -189.993
  C      622.302     382.700    -190.464
  N      621.371     382.196    -195.417
  C      622.555     382.041    -194.713
  N      623.639     381.671    -195.428
  N      622.657     382.200    -193.417
  C      621.476     382.543    -192.831
  C      620.247     382.734    -193.427
  C      620.161     382.563    -194.859
  O      619.141     382.712    -195.544
  N      619.301     383.081    -192.499
  C      619.943     383.083    -191.346
  N      621.275     382.771    -191.491
  O      618.528     384.988    -185.990
  O      617.225     384.864    -188.197
  H      624.936     384.450    -189.703
  H      618.194     385.912    -186.022
  H      621.352     382.062    -196.413
  H      619.488     383.284    -190.375
  H      622.893     381.789    -190.662
  H      623.261     384.512    -191.330
  H      623.627     381.475    -196.419
  H      621.619     385.290    -189.709
  H      624.507     381.519    -194.921
  H      622.957     383.348    -187.748
  H      620.711     383.222    -186.727
  H      621.301     384.861    -186.685
  P      623.145     387.238    -188.850
  C      623.630     387.675    -186.339
  O      623.988     387.940    -187.678
  O      621.617     387.366    -188.363
  O      623.334     387.788    -190.225
  H      621.184     388.110    -188.829
  H      624.413     388.091    -185.682
  H      623.578     386.588    -186.150
  H      622.673     388.141    -186.095
  H      616.998     381.226    -186.434
  H      616.231     382.439    -187.431
  H      616.627     382.798    -185.767

 3  4  5  6  7  8  9  10  11  12  23  26  30  31 0
 6-311+G(2d,p)
 ****
 33  35  36  37  38 0
 6-311+G(2d,p)
 ****
 1  2  13  14  15  16  17  18  19  20  21  22  24  25 0
 3-21G
 ****
 27  28  29  32  34  39  40  41  42  43  44  45  46  47  48  49 0
 3-21G
 ****


