%nproc=1
%NoSave
%Mem=1900MB
#P OB98/GEN NMR

erre ene a

0 1
  C     -796.761    -892.630    -724.416
  O     -795.404    -893.110    -724.368
  P     -794.362    -892.490    -725.425
  C     -792.830    -891.160    -723.807
  O     -792.952    -892.270    -724.677
  C     -791.884    -891.490    -722.649
  O     -792.536    -892.260    -721.625
  C     -790.667    -892.330    -723.073
  O     -789.623    -891.540    -723.639
  C     -790.227    -892.900    -721.734
  O     -789.464    -891.920    -721.011
  C     -791.568    -893.170    -721.028
  N     -790.573    -898.080    -720.043
  C     -789.840    -896.950    -719.816
  N     -790.182    -895.660    -720.123
  C     -791.375    -895.620    -720.714
  C     -792.220    -896.690    -721.013
  C     -791.757    -897.970    -720.647
  N     -792.509    -899.120    -720.868
  N     -793.380    -896.250    -721.619
  C     -793.244    -894.940    -721.676
  N     -792.060    -894.520    -721.152
  O     -794.892    -891.000    -725.656
  O     -794.288    -893.260    -726.712
  H     -790.009    -891.090    -720.956
  H     -794.745    -890.730    -726.569
  H     -788.887    -897.090    -719.336
  H     -793.972    -894.250    -722.087
  H     -791.518    -892.920    -719.955
  H     -789.584    -893.780    -721.831
  H     -790.971    -893.150    -723.750
  H     -791.517    -890.560    -722.218
  H     -793.783    -890.860    -723.414
  H     -792.137    -900.000    -720.553
  H     -793.417    -899.040    -721.297
  H     -792.433    -890.300    -724.405
  P     -788.460    -892.300    -724.434
  C     -789.100    -891.650    -726.857
  O     -788.229    -891.450    -725.770
  O     -789.164    -893.630    -724.939
  O     -787.249    -892.580    -723.623
  H     -788.526    -894.380    -725.006
  H     -788.995    -890.800    -727.560
  H     -790.151    -891.680    -726.536
  H     -788.855    -892.590    -727.391
  H     -797.341    -893.123    -723.664
  H     -797.178    -892.836    -725.380
  H     -796.772    -891.575    -724.240

 3  4  5  6  7  8  9  10  11  12  22  25  29  30  31  32 0
 6-311+G(2d,p)
 ****
 33  36  37 0
 6-311+G(2d,p)
 ****
 1  2  13  14  15  16  17  18  19  20  21  23  24  26 0
 3-21G
 ****
 27  28  34  35  38  39  40  41  42  43  44  45  46  47  48 0
 3-21G
 ****


