%nproc=1
%NoSave
%Mem=1900MB
#P OB98/GEN NMR

erre ene a

0 1
  C       33.787     368.271     409.206
  O       34.368     368.979     410.284
  P       34.573     370.561     410.181
  C       36.634     370.957     408.700
  O       36.145     370.843     410.030
  C       38.089     371.424     408.707
  O       38.177     372.784     409.178
  C       38.995     370.611     409.627
  O       39.320     369.366     409.040
  C       40.170     371.562     409.799
  O       41.066     371.471     408.678
  C       39.471     372.930     409.813
  N       41.932     374.595     413.960
  C       42.367     373.982     412.839
  N       41.642     373.533     411.793
  C       40.333     373.752     411.999
  C       39.736     374.334     413.105
  C       40.599     374.792     414.115
  N       40.170     375.474     415.233
  N       38.360     374.352     412.957
  C       38.134     373.784     411.792
  N       39.300     373.465     411.146
  O       33.886     371.364     411.237
  O       34.002     370.925     408.732
  H       40.550     371.682     407.877
  H       33.256     371.551     408.825
  H       43.441     373.842     412.769
  H       37.158     373.598     411.365
  H       40.024     373.678     409.230
  H       40.754     371.354     410.699
  H       38.505     370.466     410.597
  H       38.462     371.397     407.677
  H       36.015     371.687     408.167
  H       40.880     375.884     415.819
  H       39.243     375.889     415.217
  H       36.551     369.989     408.196
  P       39.295     368.036     409.931
  C       41.827     367.832     410.288
  O       40.681     367.277     409.674
  O       38.070     367.192     409.800
  O       39.466     368.582     411.429
  H       38.987     367.998     412.044
  H       42.162     368.702     409.717
  H       42.621     367.082     410.296
  H       41.611     368.129     411.318
  H       33.730     367.231     409.452
  H       34.389     368.398     408.330
  H       32.803     368.648     409.020

 3  4  5  6  7  8  9  10  11  12  22  25  29  30  31  32 0
 6-311+G(2d,p)
 ****
 33  36  37 0
 6-311+G(2d,p)
 ****
 1  2  13  14  15  16  17  18  19  20  21  23  24  26 0
 3-21G
 ****
 27  28  34  35  38  39  40  41  42  43  44  45  46  47  48 0
 3-21G
 ****


