%nproc=1
%NoSave
%Mem=1900MB
#P OB98/GEN NMR

erre ene a

0 1
  C       96.650     104.407      39.049
  O       95.355     103.879      38.849
  H       96.632     105.056      39.929
  H       96.957     104.997      38.183
  H       97.363     103.598      39.222
  P       95.147     102.939      37.566
  C       94.954     104.888      35.860
  O       95.695     103.759      36.301
  C       94.484     104.664      34.427
  O       93.565     105.712      34.041
  C       95.601     104.703      33.394
  O       96.343     103.498      33.358
  C       94.807     104.947      32.121
  O       94.289     103.720      31.582
  C       93.665     105.862      32.611
  N       93.870     107.254      32.220
  C       92.845     107.829      31.476
  O       91.822     107.224      31.155
  N       93.048     109.121      31.075
  C       94.169     109.864      31.309
  O       94.320     110.993      30.859
  C       95.215     109.208      32.114
  C       95.025     107.950      32.518
  O       93.559     102.946      37.367
  O       95.692     101.557      37.700
  H       93.178     102.112      37.699
  H       95.050     103.111      31.508
  H       92.322     109.552      30.526
  H       96.115     109.773      32.324
  H       95.790     107.440      33.094
  H       92.705     105.533      32.192
  H       95.423     105.397      31.344
  H       96.253     105.567      33.573
  H       93.950     103.705      34.383
  H       95.591     105.779      35.892
  H       94.103     105.040      36.531
  P       97.849     103.542      32.807
  C       97.292     102.551      30.438
  O       97.746     103.647      31.208
  O       98.319     102.036      33.070
  O       98.693     104.588      33.449
  H       97.606     101.388      32.940
  H       97.295     102.817      29.402
  H       96.298     102.293      30.737
  H       97.940     101.714      30.593

 6  7  8  9  10  11  12  13  14  15  16  27  31  32  33  34  35 0
 6-311+G(2d,p)
 ****
 36  37 0
 6-311+G(2d,p)
 ****
 1  2  3  4  5  17  18  19  20  21  22  23  24  25 0
 3-21G
 ****
 26  28  29  30  38  39  40  41  42  43  44  45 0
 3-21G
 ****


