%nproc=1
%NoSave
%Mem=1900MB
#P OB98/GEN NMR

erre ene a

0 1
  C      546.235     371.990     418.283
  O      546.189     373.181     417.521
  H      546.567     371.172     417.639
  H      545.240     371.750     418.672
  H      546.939     372.099     419.111
  P      545.621     374.483     418.271
  C      543.470     374.313     416.804
  O      544.581     375.099     417.211
  C      542.232     375.198     416.688
  O      541.918     375.804     417.961
  C      542.387     376.358     415.711
  O      542.240     375.962     414.356
  C      541.243     377.249     416.169
  O      539.994     376.714     415.693
  C      541.361     377.120     417.702
  N      542.194     378.162     418.304
  C      541.591     379.406     418.511
  O      540.421     379.603     418.182
  N      542.345     380.424     419.055
  C      543.578     380.215     419.378
  N      544.278     381.258     419.899
  C      544.249     378.909     419.196
  C      543.505     377.944     418.659
  O      546.840     375.520     418.203
  O      545.073     374.264     419.641
  H      539.285     377.176     416.177
  H      546.544     376.404     418.530
  H      545.286     378.786     419.465
  H      543.934     376.961     418.493
  H      540.368     377.152     418.172
  H      541.319     378.270     415.786
  H      543.327     376.893     415.862
  H      541.384     374.555     416.414
  H      543.813     382.153     419.959
  H      543.306     373.532     417.551
  H      545.284     381.239     420.007
  H      543.673     373.846     415.838
  P      543.575     375.798     413.482
  C      542.634     376.824     411.292
  O      543.120     375.662     411.950
  O      544.064     374.319     413.849
  O      544.637     376.821     413.749
  H      545.037     374.277     413.920
  H      542.371     376.580     410.284
  H      543.394     377.577     411.290
  H      541.770     377.190     411.807

 6  7  8  9  10  11  12  13  14  15  16  26  30  31  32  33  35 0
 6-311+G(2d,p)
 ****
 37  38 0
 6-311+G(2d,p)
 ****
 1  2  3  4  5  17  18  19  20  21  22  23  24  25 0
 3-21G
 ****
 27  28  29  34  36  39  40  41  42  43  44  45  46 0
 3-21G
 ****


