%nproc=1
%NoSave
%Mem=1900MB
#P OB98/GEN NMR

erre ene a

0 1
  C     -479.164     112.729     -33.485
  O     -479.084     111.764     -32.451
  H     -478.177     113.182     -33.625
  H     -479.874     113.515     -33.212
  H     -479.477     112.255     -34.422
  P     -480.463     111.065     -32.017
  C     -480.166     112.174     -29.671
  O     -480.993     111.996     -30.816
  C     -480.818     113.164     -28.708
  O     -480.970     114.456     -29.331
  C     -482.221     112.770     -28.251
  O     -482.230     111.763     -27.249
  C     -482.704     114.108     -27.708
  O     -482.081     114.363     -26.437
  C     -482.180     115.064     -28.804
  N     -483.155     115.303     -29.876
  C     -484.112     116.298     -29.650
  O     -484.129     116.932     -28.592
  N     -485.065     116.532     -30.611
  C     -485.044     115.855     -31.714
  N     -486.023     116.125     -32.633
  C     -484.045     114.802     -32.006
  C     -483.143     114.584     -31.053
  O     -479.984     109.745     -31.247
  O     -481.449     110.824     -33.108
  H     -482.340     115.264     -26.175
  H     -480.754     109.311     -30.804
  H     -484.080     114.253     -32.933
  H     -482.376     113.830     -31.195
  H     -481.894     116.032     -28.368
  H     -483.780     114.139     -27.549
  H     -482.853     112.482     -29.101
  H     -480.143     113.290     -27.852
  H     -486.725     116.806     -32.387
  H     -479.195     112.561     -30.003
  H     -486.180     115.551     -33.451
  H     -480.018     111.217     -29.162
  P     -483.638     111.090     -26.892
  C     -483.715     111.598     -24.335
  O     -484.231     111.886     -25.633
  O     -483.225     109.672     -26.278
  O     -484.576     110.937     -28.055
  H     -483.886     108.984     -26.496
  H     -484.212     112.209     -23.610
  H     -482.665     111.803     -24.315
  H     -483.881     110.566     -24.106

 6  7  8  9  10  11  12  13  14  15  16  26  30  31  32  33  35 0
 6-311+G(2d,p)
 ****
 37  38 0
 6-311+G(2d,p)
 ****
 1  2  3  4  5  17  18  19  20  21  22  23  24  25 0
 3-21G
 ****
 27  28  29  34  36  39  40  41  42  43  44  45  46 0
 3-21G
 ****


