%nproc=1
%NoSave
%Mem=1900MB
#P OB98/GEN NMR

erre ene a

0 1
  C      457.212     582.000     261.401
  O      456.503     582.881     260.552
  H      457.082     580.979     261.029
  H      456.813     582.054     262.417
  H      458.279     582.236     261.408
  P      456.652     584.458     260.782
  C      454.126     584.875     261.111
  O      455.276     585.131     260.309
  C      452.993     585.820     260.706
  O      453.271     587.163     261.170
  C      452.798     585.937     259.199
  O      452.133     584.804     258.678
  C      452.011     587.234     259.110
  O      450.620     587.007     259.390
  C      452.667     588.078     260.229
  N      453.650     589.035     259.717
  C      453.407     590.377     259.989
  O      452.414     590.771     260.597
  N      454.337     591.259     259.510
  C      455.400     590.946     258.708
  O      456.151     591.788     258.228
  C      455.589     589.520     258.427
  C      454.720     588.642     258.942
  O      457.885     585.083     260.217
  O      456.595     584.614     262.376
  H      450.294     586.403     258.697
  H      457.491     584.789     262.715
  H      454.174     592.238     259.687
  H      456.425     589.231     257.810
  H      454.843     587.581     258.739
  H      451.903     588.636     260.783
  H      452.071     587.691     258.124
  H      453.767     586.079     258.700
  H      452.071     585.481     261.194
  H      454.385     585.045     262.159
  H      453.823     583.831     260.978
  P      452.810     583.953     257.505
  C      450.904     584.135     255.780
  O      451.630     583.271     256.654
  O      453.898     583.028     257.927
  O      453.373     585.071     256.504
  H      454.343     584.969     256.426
  H      450.149     583.574     255.270
  H      451.574     584.564     255.065
  H      450.444     584.915     256.350

 6  7  8  9  10  11  12  13  14  15  16  26  31  32  33  34  35 0
 6-311+G(2d,p)
 ****
 36  37 0
 6-311+G(2d,p)
 ****
 1  2  3  4  5  17  18  19  20  21  22  23  24  25 0
 3-21G
 ****
 27  28  29  30  38  39  40  41  42  43  44  45 0
 3-21G
 ****


