%nproc=1
%NoSave
%Mem=1900MB
#P OB98/GEN NMR

erre ene a

0 1
  C      -14.097     192.533    -350.564
  O      -15.454     192.834    -350.815
  P      -16.139     192.498    -352.226
  C      -17.254     190.355    -351.346
  O      -16.312     190.901    -352.255
  C      -18.326     189.547    -352.074
  O      -19.076     190.416    -352.964
  C      -17.790     188.377    -352.913
  O      -18.773     187.343    -352.845
  C      -17.736     188.976    -354.307
  O      -17.688     187.987    -355.326
  C      -18.997     189.850    -354.291
  N      -18.967     190.873    -355.328
  C      -19.114     190.439    -356.648
  O      -19.179     189.234    -356.898
  N      -19.118     191.369    -357.657
  C      -18.894     192.615    -357.378
  N      -18.920     193.493    -358.414
  C      -18.609     193.100    -356.013
  C      -18.676     192.189    -355.044
  O      -15.457     193.077    -353.415
  O      -17.645     193.005    -352.041
  H      -18.509     187.453    -355.280
  H      -17.690     193.990    -352.122
  H      -18.376     194.137    -355.837
  H      -18.485     192.448    -354.016
  H      -19.895     189.235    -354.436
  H      -16.841     189.601    -354.405
  H      -16.816     188.008    -352.578
  H      -19.035     189.165    -351.324
  H      -19.135     193.122    -359.331
  H      -17.738     191.181    -350.818
  H      -18.841     194.491    -358.296
  H      -16.740     189.737    -350.601
  P      -18.361     185.814    -352.578
  C      -19.730     185.299    -350.483
  O      -18.445     185.580    -351.002
  O      -17.077     185.388    -353.212
  O      -19.601     184.969    -353.139
  H      -19.333     184.038    -353.253
  H      -19.628     184.883    -349.476
  H      -20.258     184.574    -351.113
  H      -20.316     186.223    -350.427
  H      -13.842     192.836    -349.570
  H      -13.480     193.055    -351.265
  H      -13.940     191.479    -350.667

 3  4  5  6  7  8  9  10  11  12  13  23  27  28  29  30  32 0
 6-311+G(2d,p)
 ****
 34  35 0
 6-311+G(2d,p)
 ****
 1  2  14  15  16  17  18  19  20  21  22  24  25  26 0
 3-21G
 ****
 31  33  36  37  38  39  40  41  42  43  44  45  46 0
 3-21G
 ****


