%nproc=1
%NoSave
%Mem=1900MB
#P OB98/GEN NMR

erre ene a

0 1
  C      236.128    -274.837     492.665
  O      235.829    -274.809     491.266
  P      236.609    -275.856     490.343
  C      236.815    -276.121     487.762
  O      236.747    -275.232     488.866
  C      236.693    -275.339     486.454
  O      235.334    -274.895     486.223
  C      237.542    -274.070     486.419
  O      238.908    -274.380     486.229
  C      236.889    -273.325     485.264
  O      237.352    -273.841     484.003
  C      235.397    -273.668     485.452
  N      231.272    -270.642     485.195
  C      231.772    -271.581     484.358
  N      232.870    -272.344     484.491
  C      233.493    -272.069     485.653
  C      233.115    -271.144     486.610
  C      231.953    -270.401     486.348
  N      231.463    -269.443     487.199
  N      234.005    -271.145     487.668
  C      234.919    -272.040     487.337
  N      234.650    -272.634     486.134
  O      235.555    -277.044     490.154
  O      237.899    -276.343     490.939
  H      237.013    -273.242     483.301
  H      235.839    -277.824     490.671
  H      231.192    -271.741     483.446
  H      235.791    -272.288     487.933
  H      234.896    -273.864     484.496
  H      237.096    -272.247     485.271
  H      237.410    -273.504     487.358
  H      236.983    -276.004     485.630
  H      236.014    -276.864     487.822
  H      230.663    -268.898     486.900
  H      232.003    -269.193     488.021
  H      237.764    -276.666     487.814
  P      239.842    -274.475     487.530
  C      242.367    -274.806     487.854
  O      241.332    -274.525     486.933
  O      239.598    -275.987     487.998
  O      239.590    -273.428     488.564
  H      239.643    -276.603     487.242
  H      243.319    -274.846     487.312
  H      242.193    -275.775     488.337
  H      242.425    -274.016     488.608
  H      235.545    -274.094     493.169
  H      237.168    -274.634     492.812
  H      235.894    -275.803     493.061

 3  4  5  6  7  8  9  10  11  12  22  25  29  30  31  32 0
 6-311+G(2d,p)
 ****
 33  36  37 0
 6-311+G(2d,p)
 ****
 1  2  13  14  15  16  17  18  19  20  21  23  24  26 0
 3-21G
 ****
 27  28  34  35  38  39  40  41  42  43  44  45  46  47  48 0
 3-21G
 ****


