%nproc=1
%NoSave
%Mem=1900MB
#P OB98/GEN NMR

erre ene a

0 1
  C      310.417     165.954    -142.860
  O      309.566     164.866    -143.156
  H      311.454     165.616    -142.939
  H      310.245     166.315    -141.843
  H      310.262     166.765    -143.576
  P      307.981     165.074    -142.997
  C      307.916     166.062    -145.390
  O      307.635     166.271    -144.016
  C      306.898     166.808    -146.254
  O      307.262     166.747    -147.650
  C      305.480     166.247    -146.198
  O      304.800     166.556    -144.991
  C      304.873     166.948    -147.403
  O      304.596     168.322    -147.072
  C      306.034     166.849    -148.425
  N      305.903     165.706    -149.328
  C      305.327     165.961    -150.580
  O      304.961     167.097    -150.883
  N      305.149     164.912    -151.451
  C      305.489     163.713    -151.095
  N      305.247     162.704    -151.976
  C      306.112     163.405    -149.796
  C      306.282     164.433    -148.965
  O      307.476     165.256    -141.602
  O      307.336     163.817    -143.748
  H      304.407     168.785    -147.906
  H      306.354     163.893    -143.665
  H      306.372     162.385    -149.544
  H      306.718     164.283    -147.984
  H      306.105     167.765    -149.021
  H      303.935     166.499    -147.736
  H      305.477     165.167    -146.385
  H      306.927     167.865    -145.961
  H      304.780     162.947    -152.840
  H      307.884     164.985    -145.587
  H      305.222     161.736    -151.675
  H      308.913     166.439    -145.635
  P      303.201     166.408    -144.974
  C      303.083     163.985    -144.027
  O      302.879     164.845    -145.136
  O      302.770     167.031    -146.383
  O      302.503     167.059    -143.821
  H      302.540     167.977    -146.294
  H      302.823     162.984    -144.300
  H      302.469     164.303    -143.211
  H      304.111     164.019    -143.734

 6  7  8  9  10  11  12  13  14  15  16  26  30  31  32  33  35 0
 6-311+G(2d,p)
 ****
 37  38 0
 6-311+G(2d,p)
 ****
 1  2  3  4  5  17  18  19  20  21  22  23  24  25 0
 3-21G
 ****
 27  28  29  34  36  39  40  41  42  43  44  45  46 0
 3-21G
 ****


