%nproc=1
%NoSave
%Mem=1900MB
#P OB98/GEN NMR

erre ene a

0 1
  C       91.109      19.203      67.457
  O       89.917      19.985      67.607
  P       90.078      21.575      67.474
  C       90.076      21.685      64.877
  O       89.412      22.034      66.087
  C       89.065      21.167      63.856
  O       88.495      19.900      64.260
  C       87.872      22.097      63.656
  O       88.234      23.228      62.875
  C       86.885      21.150      62.980
  O       87.196      21.011      61.584
  C       87.158      19.827      63.710
  N       83.341      16.767      65.216
  C       84.092      16.791      64.093
  N       85.087      17.641      63.763
  C       85.295      18.529      64.749
  C       84.618      18.627      65.955
  C       83.591      17.688      66.175
  N       82.819      17.675      67.320
  N       85.113      19.670      66.711
  C       86.061      20.208      65.964
  N       86.214      19.546      64.775
  O       91.648      21.770      67.225
  O       89.613      22.328      68.678
  H       88.172      20.958      61.506
  H       92.066      22.151      68.018
  H       83.851      16.029      63.356
  H       86.655      21.070      66.242
  H       87.138      18.969      63.026
  H       85.848      21.494      63.052
  H       87.479      22.421      64.627
  H       89.591      21.021      62.897
  H       90.837      20.925      65.065
  H       82.053      17.025      67.365
  H       82.943      18.413      67.998
  H       90.602      22.569      64.498
  P       87.757      24.670      63.401
  C       89.752      26.007      62.493
  O       88.385      25.686      62.320
  O       88.695      24.882      64.674
  O       86.291      24.800      63.631
  H       89.621      24.645      64.483
  H       90.062      26.675      61.678
  H       90.364      25.097      62.458
  H       89.903      26.521      63.451
  H       90.871      18.166      67.566
  H       91.818      19.487      68.206
  H       91.527      19.373      66.487

 3  4  5  6  7  8  9  10  11  12  22  25  29  30  31  32 0
 6-311+G(2d,p)
 ****
 33  36  37 0
 6-311+G(2d,p)
 ****
 1  2  13  14  15  16  17  18  19  20  21  23  24  26 0
 3-21G
 ****
 27  28  34  35  38  39  40  41  42  43  44  45  46  47  48 0
 3-21G
 ****


