%nproc=1
%NoSave
%Mem=1900MB
#P OB98/GEN NMR

erre ene a

0 1
  C      272.312    -159.468    -754.562
  O      273.099    -160.401    -753.813
  P      274.579    -160.707    -754.358
  C      274.739    -163.076    -753.275
  O      275.263    -161.749    -753.338
  C      274.761    -163.592    -751.838
  O      273.523    -163.300    -751.163
  C      274.921    -165.102    -751.722
  O      276.279    -165.503    -751.878
  C      274.454    -165.345    -750.293
  O      275.535    -165.078    -749.371
  C      273.338    -164.298    -750.130
  N      269.111    -165.676    -747.690
  C      270.296    -165.146    -747.192
  N      270.336    -164.919    -745.857
  N      271.323    -164.851    -747.932
  C      271.123    -165.099    -749.256
  C      270.007    -165.633    -749.867
  C      268.878    -165.980    -749.026
  O      267.827    -166.487    -749.403
  N      270.174    -165.732    -751.222
  C      271.379    -165.235    -751.439
  N      272.004    -164.857    -750.273
  O      275.367    -159.342    -754.055
  O      274.626    -161.077    -755.800
  H      276.308    -165.596    -749.684
  H      276.103    -159.232    -754.685
  H      268.349    -165.888    -747.069
  H      271.843    -165.129    -752.413
  H      273.399    -163.791    -749.163
  H      274.136    -166.375    -750.123
  H      269.549    -165.047    -745.233
  H      274.258    -165.627    -752.422
  H      271.175    -164.490    -745.477
  H      275.580    -163.088    -751.305
  H      275.340    -163.732    -753.910
  H      273.729    -163.075    -753.688
  P      276.545    -167.013    -752.356
  C      277.990    -167.912    -750.386
  O      277.961    -167.420    -751.713
  O      276.858    -166.851    -753.917
  O      275.419    -167.952    -752.090
  H      276.602    -167.671    -754.394
  H      277.177    -168.620    -750.204
  H      277.908    -167.070    -749.683
  H      278.943    -168.418    -750.218
  H      271.355    -159.354    -754.097
  H      272.182    -159.831    -755.560
  H      272.811    -158.522    -754.589

 3  4  5  6  7  8  9  10  11  12  23  26  30  31  33  0
 6-311+G(2d,p)
 ****
 35  36  37  38 0
 6-311+G(2d,p)
 ****
 1  2  13  14  15  16  17  18  19  20  21  22  24  25  27  28  29 0
 3-21G
 ****
 32  34  39  40  41  42  43  44  45  46  47  48  49 0
 3-21G
 ****


