%nproc=1
%NoSave
%Mem=1900MB
#P OB98/GEN NMR

erre ene a

0 1
  C      756.359    1272.356     404.405
  O      755.641    1272.241     405.616
  H      755.841    1273.065     403.756
  H      756.404    1271.390     403.909
  H      757.375    1272.722     404.593
  P      756.339    1271.439     406.819
  C      756.969    1273.268     408.558
  O      757.399    1272.436     407.480
  C      758.042    1273.306     409.641
  O      758.408    1271.932     409.978
  C      759.326    1274.037     409.236
  O      759.843    1274.712     410.385
  C      760.275    1272.901     408.876
  O      761.642    1273.237     408.958
  C      759.854    1271.837     409.887
  N      760.263    1270.493     409.500
  C      761.633    1270.247     409.395
  O      762.508    1271.050     409.689
  N      761.973    1269.007     408.922
  C      761.109    1268.021     408.531
  O      761.478    1266.937     408.096
  C      759.675    1268.347     408.664
  C      759.325    1269.548     409.127
  O      757.255    1270.372     406.045
  O      755.402    1270.797     407.787
  H      756.756    1269.554     405.882
  H      761.819    1273.570     409.865
  H      762.958    1268.809     408.847
  H      758.963    1267.591     408.347
  H      758.282    1269.825     409.214
  H      760.248    1272.073     410.881
  H      760.059    1272.559     407.849
  H      759.201    1274.742     408.409
  H      757.608    1273.744     410.555
  H      756.056    1272.860     408.979
  H      756.782    1274.275     408.169
  P      759.803    1276.321     410.360
  C      758.594    1276.538     412.678
  O      758.545    1276.723     411.273
  O      759.320    1276.608     408.867
  O      761.109    1276.945     410.735
  H      758.689    1275.944     408.542
  H      757.671    1276.861     413.113
  H      759.400    1277.112     413.085
  H      758.748    1275.502     412.896

 6  7  8  9  10  11  12  13  14  15  16  27  31  32  33  34  35 0
 6-311+G(2d,p)
 ****
 36  37 0
 6-311+G(2d,p)
 ****
 1  2  3  4  5  17  18  19  20  21  22  23  24  25 0
 3-21G
 ****
 26  28  29  30  38  39  40  41  42  43  44  45 0
 3-21G
 ****


