%nproc=1
%NoSave
%Mem=1900MB
#P OB98/GEN NMR

erre ene a

0 1
  C      579.852    -321.848     361.627
  O      578.752    -320.995     361.889
  H      580.178    -322.290     362.570
  H      580.687    -321.283     361.197
  H      579.553    -322.652     360.948
  P      578.130    -320.155     360.672
  C      575.720    -319.802     361.565
  O      576.997    -319.216     361.309
  C      575.113    -319.230     362.841
  O      575.901    -319.616     363.990
  C      575.054    -317.706     362.882
  O      574.008    -317.225     362.053
  C      574.866    -317.467     364.371
  O      573.505    -317.699     364.767
  C      575.806    -318.551     364.970
  N      577.124    -318.043     365.320
  C      577.215    -317.341     366.532
  O      576.206    -317.164     367.216
  N      578.443    -316.848     366.913
  C      579.491    -317.064     366.178
  N      580.670    -316.550     366.612
  C      579.444    -317.835     364.917
  C      578.249    -318.282     364.540
  O      577.682    -320.947     359.484
  O      579.289    -319.119     360.286
  H      572.962    -317.052     364.272
  H      579.839    -319.474     359.567
  H      580.355    -318.005     364.341
  H      578.129    -318.860     363.633
  H      575.357    -318.987     365.868
  H      575.116    -316.442     364.661
  H      576.012    -317.276     362.577
  H      574.115    -319.671     362.966
  H      580.656    -316.052     367.492
  H      575.875    -320.880     361.671
  H      581.572    -316.790     366.220
  H      575.045    -319.629     360.716
  P      574.055    -315.765     361.398
  C      572.323    -316.929     359.892
  O      572.778    -315.688     360.423
  O      575.352    -315.384     360.775
  O      573.612    -314.799     362.604
  H      574.375    -314.668     363.238
  H      571.475    -316.758     359.262
  H      572.046    -317.580     360.695
  H      573.107    -317.381     359.321

 6  7  8  9  10  11  12  13  14  15  16  26  30  31  32  33  35 0
 6-311+G(2d,p)
 ****
 37  38 0
 6-311+G(2d,p)
 ****
 1  2  3  4  5  17  18  19  20  21  22  23  24  25 0
 3-21G
 ****
 27  28  29  34  36  39  40  41  42  43  44  45  46 0
 3-21G
 ****


