%nproc=1
%NoSave
%Mem=1900MB
#P OB98/GEN NMR

erre ene a

0 1
  C       14.277      72.318      23.689
  O       13.372      72.808      22.721
  H       13.848      71.425      24.150
  H       14.447      73.069      24.464
  H       15.225      72.052      23.215
  P       13.769      74.189      22.003
  C       14.150      72.840      19.804
  O       14.694      73.721      20.775
  C       14.244      73.468      18.418
  O       13.374      74.618      18.320
  C       15.633      73.983      18.049
  O       16.529      72.956      17.664
  C       15.274      74.886      16.883
  O       14.977      74.084      15.724
  C       14.005      75.576      17.426
  N       14.291      76.828      18.132
  C       14.012      78.014      17.444
  O       13.553      77.987      16.304
  N       14.295      79.213      18.053
  C       14.792      79.229      19.251
  N       15.053      80.445      19.801
  C       15.089      78.006      20.016
  C       14.817      76.855      19.406
  O       14.828      74.839      23.011
  O       12.636      75.085      21.632
  H       14.826      74.705      14.988
  H       15.251      75.629      22.593
  H       15.514      78.069      21.008
  H       15.008      75.912      19.907
  H       13.295      75.786      16.617
  H       16.077      75.566      16.599
  H       16.061      74.595      18.850
  H       13.889      72.727      17.691
  H       14.894      81.265      19.228
  H       13.103      72.651      20.061
  H       15.575      80.560      20.659
  H       14.695      71.892      19.810
  P       18.099      73.247      17.835
  C       18.417      71.656      19.871
  O       18.455      72.988      19.376
  O       18.193      74.836      17.696
  O       18.981      72.545      16.850
  H       19.026      75.100      17.261
  H       18.678      71.654      20.909
  H       19.114      71.053      19.327
  H       17.431      71.259      19.750

 6  7  8  9  10  11  12  13  14  15  16  26  30  31  32  33  35 0
 6-311+G(2d,p)
 ****
 37  38 0
 6-311+G(2d,p)
 ****
 1  2  3  4  5  17  18  19  20  21  22  23  24  25 0
 3-21G
 ****
 27  28  29  34  36  39  40  41  42  43  44  45  46 0
 3-21G
 ****


