%nproc=1
%NoSave
%Mem=1900MB
#P OB98/GEN NMR

erre ene a

0 1
  C     -246.800      13.983     -28.328
  O     -246.579      13.667     -26.968
  H     -246.604      15.045     -28.510
  H     -246.120      13.386     -28.943
  H     -247.830      13.742     -28.607
  P     -247.414      14.522     -25.894
  C     -247.817      17.052     -25.492
  O     -247.041      16.063     -26.152
  C     -246.913      18.101     -24.862
  O     -246.116      17.506     -23.818
  C     -245.912      18.739     -25.817
  O     -246.514      19.739     -26.627
  C     -244.921      19.339     -24.828
  O     -245.433      20.586     -24.325
  C     -244.897      18.289     -23.707
  N     -240.147      17.357     -21.986
  C     -241.023      18.353     -21.719
  N     -242.261      18.543     -22.223
  C     -242.586      17.558     -23.076
  C     -241.796      16.479     -23.445
  C     -240.521      16.399     -22.864
  N     -239.626      15.388     -23.159
  N     -242.469      15.666     -24.334
  C     -243.644      16.241     -24.501
  N     -243.757      17.393     -23.765
  O     -246.679      14.194     -24.504
  O     -248.872      14.218     -25.826
  H     -245.647      21.134     -25.105
  H     -247.348      14.164     -23.794
  H     -240.684      19.099     -21.005
  H     -244.435      15.863     -25.132
  H     -244.911      18.759     -22.718
  H     -243.942      19.540     -25.272
  H     -245.404      17.981     -26.424
  H     -247.552      18.865     -24.398
  H     -248.421      16.577     -24.709
  H     -238.816      15.271     -22.570
  H     -239.920      14.669     -23.811
  H     -248.490      17.516     -26.221
  P     -245.946      19.923     -28.119
  C     -243.567      20.215     -29.115
  O     -244.390      20.268     -27.953
  O     -246.588      21.319     -28.580
  O     -246.283      18.821     -29.066
  H     -246.654      21.346     -29.555
  H     -242.561      20.467     -28.851
  H     -243.931      20.911     -29.842
  H     -243.591      19.227     -29.524

 6  7  8  9  10  11  12  13  14  15  25  28  32  33  34  35 0
 6-311+G(2d,p)
 ****
 36  39  40 0
 6-311+G(2d,p)
 ****
 1  2  3  4  5  16  17  18  19  20  21  22  23  24 0
 3-21G
 ****
 26  27  29  30  31  37  38  41  42  43  44  45  46  47  48 0
 3-21G
 ****


