%nproc=1
%NoSave
%Mem=1900MB
#P OB98/GEN NMR

erre ene a

0 1
  C     -297.931    -811.061    1011.509
  O     -296.782    -811.283    1012.305
  H     -297.642    -811.105    1010.455
  H     -298.344    -810.068    1011.717
  H     -298.690    -811.826    1011.702
  P     -297.018    -811.426    1013.884
  C     -296.950    -814.046    1013.660
  O     -297.630    -812.891    1014.147
  C     -296.814    -815.079    1014.779
  O     -295.770    -814.718    1015.702
  C     -298.045    -815.201    1015.653
  O     -299.126    -815.833    1014.993
  C     -297.482    -816.010    1016.815
  O     -297.382    -817.398    1016.487
  C     -296.068    -815.376    1016.957
  N     -295.982    -814.469    1018.090
  C     -295.703    -815.057    1019.326
  O     -295.538    -816.275    1019.414
  N     -295.649    -814.258    1020.441
  C     -295.831    -812.979    1020.325
  N     -295.772    -812.239    1021.467
  C     -296.096    -812.309    1019.033
  C     -296.156    -813.112    1017.969
  O     -298.271    -810.466    1014.140
  O     -295.827    -811.128    1014.733
  H     -297.198    -817.870    1017.311
  H     -299.032    -810.664    1013.572
  H     -296.217    -811.237    1018.987
  H     -296.357    -812.700    1016.987
  H     -295.310    -816.154    1017.091
  H     -298.100    -815.938    1017.712
  H     -298.351    -814.220    1016.034
  H     -296.543    -816.039    1014.310
  H     -295.612    -812.730    1022.334
  H     -295.970    -813.780    1013.250
  H     -295.924    -811.237    1021.506
  H     -297.547    -814.456    1012.833
  P     -300.636    -815.406    1015.325
  C     -300.309    -813.686    1013.444
  O     -300.833    -813.921    1014.747
  O     -301.055    -815.588    1016.745
  O     -301.488    -816.282    1014.289
  H     -301.288    -816.120    1013.347
  H     -300.496    -812.671    1013.162
  H     -300.783    -814.343    1012.745
  H     -299.255    -813.868    1013.446

 6  7  8  9  10  11  12  13  14  15  16  26  30  31  32  33  35 0
 6-311+G(2d,p)
 ****
 37  38 0
 6-311+G(2d,p)
 ****
 1  2  3  4  5  17  18  19  20  21  22  23  24  25 0
 3-21G
 ****
 27  28  29  34  36  39  40  41  42  43  44  45  46 0
 3-21G
 ****


