%nproc=1
%NoSave
%Mem=1900MB
#P OB98/GEN NMR

erre ene a

0 1
  C     -139.584     -68.203      20.378
  O     -138.367     -67.672      19.898
  H     -139.883     -67.644      21.270
  H     -139.465     -69.255      20.649
  H     -140.370     -68.099      19.622
  P     -137.672     -68.357      18.625
  C     -135.591     -69.079      19.974
  O     -136.700     -69.506      19.189
  C     -134.527     -70.187      20.029
  O     -134.984     -71.192      20.969
  C     -134.311     -70.863      18.663
  O     -132.942     -70.886      18.266
  C     -135.034     -72.197      18.819
  O     -134.544     -73.227      17.989
  C     -134.930     -72.478      20.322
  N     -135.982     -73.354      20.835
  C     -135.648     -74.208      21.886
  O     -134.544     -74.270      22.424
  N     -136.662     -75.023      22.333
  C     -137.929     -75.076      21.834
  O     -138.796     -75.826      22.280
  C     -138.212     -74.171      20.708
  C     -137.244     -73.368      20.265
  O     -137.034     -67.420      17.656
  O     -138.855     -69.193      17.940
  H     -134.915     -73.079      17.091
  H     -139.156     -68.732      17.135
  H     -136.435     -75.632      23.103
  H     -139.209     -74.199      20.281
  H     -137.416     -72.687      19.436
  H     -133.970     -72.941      20.560
  H     -136.090     -72.048      18.557
  H     -134.794     -70.287      17.863
  H     -133.597     -69.760      20.421
  H     -135.956     -68.857      20.979
  H     -135.159     -68.172      19.536
  P     -132.221     -69.765      17.384
  C     -132.205     -70.718      14.930
  O     -132.790     -69.848      15.889
  O     -130.737     -69.671      17.536
  O     -132.852     -68.384      17.934
  H     -132.153     -67.707      17.845
  H     -132.726     -70.626      14.000
  H     -132.271     -71.728      15.277
  H     -131.177     -70.455      14.790

 6  7  8  9  10  11  12  13  14  15  16  26  31  32  33  34  35 0
 6-311+G(2d,p)
 ****
 36  37 0
 6-311+G(2d,p)
 ****
 1  2  3  4  5  17  18  19  20  21  22  23  24  25 0
 3-21G
 ****
 27  28  29  30  38  39  40  41  42  43  44  45 0
 3-21G
 ****


