%nproc=1
%NoSave
%Mem=1900MB
#P OB98/GEN NMR

erre ene a

0 1
  C     -355.273     340.282    -176.501
  O     -355.241     339.695    -175.218
  H     -355.725     341.275    -176.420
  H     -355.884     339.672    -177.172
  H     -354.265     340.389    -176.913
  P     -354.348     338.389    -174.988
  C     -351.954     338.212    -175.939
  O     -352.811     338.854    -175.008
  C     -350.510     338.701    -175.778
  O     -350.457     340.120    -176.087
  C     -350.024     338.545    -174.329
  O     -348.611     338.376    -174.259
  C     -350.393     339.880    -173.705
  O     -349.615     340.192    -172.550
  C     -350.167     340.838    -174.872
  N     -350.252     345.924    -174.520
  C     -349.190     345.053    -174.357
  N     -347.989     345.613    -174.069
  N     -349.297     343.754    -174.451
  C     -350.563     343.330    -174.672
  C     -351.704     344.094    -174.826
  C     -351.563     345.530    -174.757
  O     -352.475     346.345    -174.868
  N     -352.810     343.302    -175.028
  C     -352.347     342.072    -174.992
  N     -350.985     342.032    -174.803
  O     -354.485     337.590    -176.371
  O     -354.738     337.532    -173.818
  H     -348.696     340.319    -172.842
  H     -354.287     336.643    -176.238
  H     -350.112     346.916    -174.467
  H     -352.944     341.177    -175.111
  H     -349.119     341.157    -174.917
  H     -351.436     339.832    -173.389
  H     -347.911     346.583    -173.799
  H     -350.507     337.721    -173.815
  H     -347.294     344.997    -173.645
  H     -349.855     338.195    -176.496
  H     -352.332     338.447    -176.937
  H     -352.011     337.124    -175.823
  P     -348.029     336.896    -174.041
  C     -347.980     334.814    -175.681
  O     -347.786     336.197    -175.459
  O     -349.257     336.088    -173.422
  O     -346.816     336.835    -173.164
  H     -349.052     335.800    -172.514
  H     -347.756     334.582    -176.701
  H     -348.998     334.559    -175.472
  H     -347.333     334.255    -175.037

 6  7  8  9  10  11  12  13  14  15  26  29  33  34 0
 6-311+G(2d,p)
 ****
 36  38  39  40  41 0
 6-311+G(2d,p)
 ****
 1  2  3  4  5  16  17  18  19  20  21  22  23  24  25 0
 3-21G
 ****
 27  28  30  31  32  35  37  42  43  44  45  46  47 0
 3-21G
 ****
 48  49 0
 3-21G
 ****


