%nproc=1
%NoSave
%Mem=1900MB
#P OB98/GEN NMR

erre ene a

0 1
  C     -722.887    -417.637    -372.164
  O     -724.070    -417.343    -371.425
  P     -724.318    -415.836    -370.937
  C     -726.379    -415.073    -372.291
  O     -724.960    -415.003    -372.144
  C     -726.761    -415.375    -373.746
  O     -726.180    -416.644    -374.137
  C     -728.265    -415.511    -374.011
  O     -729.002    -414.341    -374.339
  C     -728.272    -416.393    -375.253
  O     -728.075    -415.582    -376.429
  C     -727.068    -417.308    -375.057
  N     -729.824    -421.526    -375.932
  C     -729.669    -420.396    -376.649
  N     -728.910    -419.315    -376.341
  C     -728.269    -419.500    -375.175
  C     -728.338    -420.601    -374.342
  C     -729.159    -421.661    -374.762
  N     -729.331    -422.814    -374.035
  N     -727.545    -420.421    -373.226
  C     -727.028    -419.216    -373.373
  N     -727.424    -418.624    -374.537
  O     -723.171    -415.181    -370.240
  O     -725.565    -416.003    -369.939
  H     -728.943    -415.191    -376.647
  H     -725.453    -415.388    -369.182
  H     -730.206    -420.343    -377.582
  H     -726.371    -418.745    -372.669
  H     -726.512    -417.466    -375.991
  H     -729.227    -416.913    -375.392
  H     -728.757    -416.030    -373.183
  H     -726.340    -414.594    -374.396
  H     -726.824    -414.116    -371.982
  H     -729.980    -423.504    -374.383
  H     -728.892    -422.904    -373.131
  H     -726.738    -415.833    -371.596
  P     -729.408    -413.263    -373.219
  C     -729.013    -411.111    -374.650
  O     -728.589    -411.932    -373.586
  O     -729.240    -413.725    -371.813
  O     -730.904    -412.886    -373.616
  H     -730.990    -412.397    -374.458
  H     -728.467    -410.156    -374.592
  H     -730.086    -410.895    -374.585
  H     -728.795    -411.586    -375.601
  H     -722.871    -418.678    -372.413
  H     -722.028    -417.399    -371.572
  H     -722.874    -417.055    -373.062

 3  4  5  6  7  8  9  10  11  12  22  25  29  30  31  32 0
 6-311+G(2d,p)
 ****
 33  36  37 0
 6-311+G(2d,p)
 ****
 1  2  13  14  15  16  17  18  19  20  21  23  24  26 0
 3-21G
 ****
 27  28  34  35  38  39  40  41  42  43  44  45  46  47  48 0
 3-21G
 ****


