%nproc=1
%NoSave
%Mem=1900MB
#P OB98/GEN NMR

erre ene a

0 1
  C       51.335    -212.648     336.913
  O       51.169    -213.826     336.149
  H       51.671    -212.924     337.915
  H       50.381    -212.121     336.995
  H       52.084    -211.994     336.456
  P       50.907    -213.652     334.577
  C       48.343    -213.441     334.956
  O       49.522    -212.849     334.432
  C       47.197    -212.429     334.938
  O       47.068    -211.902     333.585
  C       45.837    -213.022     335.331
  O       45.108    -212.027     336.061
  C       45.160    -213.249     333.993
  O       43.742    -213.296     334.063
  C       45.687    -212.052     333.194
  N       45.566    -212.241     331.750
  C       44.767    -211.342     331.052
  O       44.225    -210.355     331.545
  N       44.599    -211.616     329.718
  C       45.117    -212.683     329.042
  O       44.911    -212.883     327.850
  C       45.945    -213.600     329.835
  C       46.127    -213.343     331.132
  O       50.527    -215.134     334.110
  O       52.041    -213.077     333.796
  H       51.329    -215.623     333.848
  H       43.407    -213.421     333.152
  H       44.021    -210.974     329.197
  H       46.364    -214.463     329.335
  H       46.715    -214.013     331.752
  H       45.163    -211.136     333.492
  H       45.509    -214.192     333.554
  H       45.903    -213.940     335.922
  H       47.461    -211.588     335.585
  H       48.523    -213.756     335.989
  H       48.085    -214.322     334.358
  P       45.265    -212.023     337.659
  C       43.462    -213.917     337.856
  O       44.783    -213.474     338.141
  O       44.075    -211.047     338.083
  O       46.624    -211.605     338.109
  H       43.293    -211.130     337.512
  H       43.323    -214.901     338.252
  H       43.312    -213.934     336.797
  H       42.757    -213.249     338.305

 6  7  8  9  10  11  12  13  14  15  16  27  31  32  33  34  35 0
 6-311+G(2d,p)
 ****
 36  37 0
 6-311+G(2d,p)
 ****
 1  2  3  4  5  17  18  19  20  21  22  23  24  25 0
 3-21G
 ****
 26  28  29  30  38  39  40  41  42  43  44  45 0
 3-21G
 ****


