%nproc=1
%NoSave
%Mem=1900MB
#P OB98/GEN NMR

erre ene a

0 1
  C     -136.045     152.401       5.866
  O     -136.982     152.977       4.969
  P     -136.422     153.977       3.840
  C     -135.310     156.336       3.893
  O     -136.075     155.358       4.581
  C     -135.044     157.543       4.792
  O     -134.147     157.136       5.862
  C     -134.394     158.742       4.091
  O     -134.884     159.923       4.742
  C     -132.919     158.565       4.399
  O     -132.179     159.776       4.274
  C     -132.995     158.007       5.820
  N     -128.478     158.241       8.092
  C     -129.394     159.247       7.837
  N     -129.084     160.472       8.312
  N     -130.512     159.065       7.182
  C     -130.693     157.781       6.786
  C     -129.843     156.708       6.947
  C     -128.630     156.916       7.705
  O     -127.833     156.038       8.029
  N     -130.331     155.585       6.327
  C     -131.508     155.957       5.869
  N     -131.794     157.265       6.162
  O     -137.733     154.323       2.994
  O     -135.313     153.442       2.990
  H     -132.299     160.108       3.360
  H     -137.818     153.733       2.217
  H     -127.645     158.438       8.623
  H     -132.198     155.330       5.324
  H     -133.127     158.789       6.572
  H     -132.482     157.831       3.709
  H     -128.255     160.677       8.848
  H     -134.602     158.786       3.019
  H     -129.757     161.220       8.163
  H     -135.994     157.842       5.263
  H     -135.872     156.672       3.016
  H     -134.367     155.890       3.551
  P     -135.239     161.191       3.823
  C     -133.914     162.956       2.469
  O     -133.865     161.788       3.265
  O     -135.706     162.289       4.899
  O     -136.315     160.950       2.816
  H     -136.386     162.862       4.505
  H     -132.933     163.448       2.511
  H     -134.672     163.659       2.834
  H     -134.134     162.686       1.434
  H     -136.557     151.763       6.556
  H     -135.542     153.177       6.404
  H     -135.329     151.828       5.315

 3  4  5  6  7  8  9  10  11  12  23  26  30  31 0
 6-311+G(2d,p)
 ****
 33  35  36  37  38 0
 6-311+G(2d,p)
 ****
 1  2  13  14  15  16  17  18  19  20  21  22  24  25 0
 3-21G
 ****
 27  28  29  32  34  39  40  41  42  43  44  45  46  47  48  49 0
 3-21G
 ****


