%nproc=1
%NoSave
%Mem=1900MB
#P OB98/GEN NMR

erre ene a

0 1
  C     -284.845     737.607     372.857
  O     -284.453     738.946     372.642
  H     -284.180     737.164     373.603
  H     -284.750     737.043     371.926
  H     -285.871     737.546     373.221
  P     -285.439     739.921     371.847
  C     -286.309     741.556     373.644
  O     -285.390     741.343     372.581
  C     -287.231     742.748     373.341
  O     -288.287     742.796     374.337
  C     -286.473     744.078     373.426
  O     -287.045     745.074     372.586
  C     -286.673     744.487     374.880
  O     -286.521     745.890     375.094
  C     -288.090     743.965     375.149
  N     -291.320     744.211     379.078
  C     -291.391     744.843     377.853
  N     -292.472     745.645     377.650
  N     -290.484     744.727     376.919
  C     -289.432     743.949     377.299
  C     -289.237     743.289     378.488
  C     -290.278     743.406     379.500
  O     -290.250     742.881     380.607
  N     -288.051     742.609     378.498
  C     -287.514     742.862     377.316
  N     -288.330     743.648     376.540
  O     -286.900     739.380     372.233
  O     -285.250     739.961     370.359
  H     -285.562     746.076     375.107
  H     -287.554     739.652     371.567
  H     -292.061     744.317     379.753
  H     -286.559     742.487     376.973
  H     -288.838     744.711     374.843
  H     -285.917     743.978     375.489
  H     -293.074     745.916     378.404
  H     -285.419     743.978     373.191
  H     -292.380     746.344     376.906
  H     -287.721     742.608     372.367
  H     -285.718     741.751     374.543
  H     -286.895     740.653     373.827
  P     -286.197     745.602     371.332
  C     -286.044     744.018     369.214
  O     -286.764     744.954     369.982
  O     -284.769     744.900     371.517
  O     -286.080     747.086     371.239
  H     -284.083     745.569     371.676
  H     -286.626     743.732     368.363
  H     -285.834     743.154     369.809
  H     -285.125     744.457     368.886

 6  7  8  9  10  11  12  13  14  15  26  29  33  34 0
 6-311+G(2d,p)
 ****
 36  38  39  40  41 0
 6-311+G(2d,p)
 ****
 1  2  3  4  5  16  17  18  19  20  21  22  23  24  25 0
 3-21G
 ****
 27  28  30  31  32  35  37  42  43  44  45  46  47 0
 3-21G
 ****
 48  49 0
 3-21G
 ****


