%nproc=1
%NoSave
%Mem=1900MB
#P OB98/GEN NMR

erre ene a

0 1
  C      362.139     147.888     508.842
  O      362.936     148.921     508.267
  P      363.659     148.606     506.871
  C      366.183     148.331     506.208
  O      365.171     148.178     507.187
  C      367.562     147.953     506.778
  O      368.000     149.013     507.657
  C      367.592     146.681     507.627
  O      368.944     146.227     507.719
  C      367.138     147.202     508.974
  O      367.479     146.307     510.023
  C      367.814     148.593     509.035
  N      367.024     149.603     509.774
  C      367.446     149.971     511.050
  O      368.439     149.506     511.606
  N      366.659     150.882     511.704
  C      365.539     151.478     511.209
  O      364.826     152.219     511.868
  C      365.220     151.159     509.807
  C      365.954     150.248     509.174
  O      363.789     150.044     506.182
  O      362.908     147.642     506.014
  H      368.464     146.313     510.089
  H      363.141     150.133     505.467
  H      366.916     151.105     512.654
  H      364.376     151.663     509.354
  H      365.718     149.984     508.142
  H      368.800     148.532     509.521
  H      366.050     147.314     508.981
  H      366.948     145.878     507.262
  H      368.283     147.884     505.955
  H      366.193     149.365     505.846
  H      365.960     147.692     505.345
  P      369.293     144.787     507.108
  C      369.962     142.491     508.049
  O      369.591     143.824     508.353
  O      370.315     144.773     506.018
  O      367.868     144.261     506.590
  H      367.997     143.543     505.944
  H      370.610     142.119     508.846
  H      370.500     142.428     507.094
  H      369.062     141.872     507.998
  H      361.720     148.232     509.764
  H      362.748     147.028     509.026
  H      361.351     147.628     508.167

 3  4  5  6  7  8  9  10  11  12  13  23  28  29  30  31  32 0
 6-311+G(2d,p)
 ****
 33  34 0
 6-311+G(2d,p)
 ****
 1  2  14  15  16  17  18  19  20  21  22  24  25  26  27 0
 3-21G
 ****
 35  36  37  38  39  40  41  42  43  44  45 0
 3-21G
 ****


