%nproc=1
%NoSave
%Mem=1900MB
#P OB98/GEN NMR

erre ene a

0 1
  C       63.219    -774.690     102.951
  O       62.571    -775.940     102.807
  H       62.952    -774.056     102.100
  H       64.302    -774.832     102.955
  H       62.902    -774.196     103.873
  P       62.667    -776.947     104.052
  C       63.984    -778.794     102.791
  O       63.991    -777.826     103.828
  C       65.359    -779.455     102.675
  O       66.362    -778.464     102.364
  C       65.826    -780.159     103.945
  O       65.273    -781.460     104.060
  C       67.323    -780.211     103.695
  O       67.621    -781.263     102.757
  C       67.583    -778.838     103.058
  N       71.362    -776.047     104.971
  C       71.388    -777.036     104.002
  N       72.597    -777.333     103.477
  N       70.332    -777.685     103.593
  C       69.192    -777.296     104.213
  C       69.035    -776.328     105.181
  C       70.211    -775.614     105.620
  O       70.241    -774.713     106.456
  N       67.727    -776.206     105.563
  C       67.092    -777.108     104.839
  N       67.937    -777.803     104.011
  O       61.485    -777.993     103.772
  O       62.529    -776.317     105.396
  H       67.328    -782.094     103.169
  H       61.090    -778.256     104.627
  H       72.210    -775.592     105.262
  H       66.027    -777.298     104.884
  H       68.387    -778.875     102.310
  H       67.896    -780.420     104.600
  H       73.456    -776.908     103.786
  H       65.624    -779.550     104.838
  H       72.639    -778.027     102.748
  H       65.321    -780.160     101.836
  H       63.735    -778.309     101.844
  H       63.222    -779.548     103.018
  P       65.626    -782.299     105.389
  C       66.905    -784.175     104.121
  O       66.976    -783.097     105.049
  O       64.512    -783.451     105.386
  O       65.622    -781.512     106.653
  H       64.385    -783.788     106.291
  H       67.877    -784.605     103.999
  H       66.554    -783.811     103.178
  H       66.230    -784.919     104.489

 6  7  8  9  10  11  12  13  14  15  26  29  33  34 0
 6-311+G(2d,p)
 ****
 36  38  39  40  41 0
 6-311+G(2d,p)
 ****
 1  2  3  4  5  16  17  18  19  20  21  22  23  24  25 0
 3-21G
 ****
 27  28  30  31  32  35  37  42  43  44  45  46  47 0
 3-21G
 ****
 48  49 0
 3-21G
 ****


