%nproc=1
%NoSave
%Mem=1900MB
#P OB98/GEN NMR

erre ene a

0 1
  C     -426.843    1187.032     842.025
  O     -425.794    1187.971     842.172
  H     -426.950    1186.783     840.970
  H     -427.787    1187.469     842.379
  H     -426.630    1186.114     842.585
  P     -425.309    1188.365     843.641
  C     -425.161    1190.930     843.349
  O     -424.442    1189.704     843.496
  C     -424.439    1191.856     842.354
  O     -423.098    1192.130     842.866
  C     -424.277    1191.270     840.946
  O     -424.271    1192.373     840.019
  C     -422.897    1190.636     841.054
  O     -422.373    1190.266     839.805
  C     -422.173    1191.759     841.819
  N     -420.887    1191.402     842.378
  C     -419.776    1192.156     842.004
  O     -419.823    1193.109     841.224
  N     -418.575    1191.778     842.541
  C     -418.380    1190.754     843.420
  O     -417.290    1190.480     843.901
  C     -419.576    1189.989     843.777
  C     -420.756    1190.342     843.258
  O     -424.658    1187.276     844.434
  O     -426.652    1188.882     844.356
  H     -427.005    1188.190     844.945
  H     -422.892    1189.509     839.447
  H     -417.767    1192.313     842.280
  H     -419.462    1189.157     844.466
  H     -421.653    1189.798     843.513
  H     -422.058    1192.640     841.171
  H     -422.945    1189.728     841.653
  H     -425.070    1190.565     840.671
  H     -424.972    1192.812     842.326
  H     -425.226    1191.408     844.329
  H     -426.170    1190.704     842.989
  P     -425.037    1192.334     838.603
  C     -423.391    1194.001     837.522
  O     -424.741    1193.712     837.843
  O     -426.491    1191.997     838.713
  O     -424.269    1191.231     837.745
  H     -424.880    1190.855     837.066
  H     -423.338    1194.945     837.020
  H     -423.005    1193.235     836.883
  H     -422.812    1194.042     838.421

 6  7  8  9  10  11  12  13  14  15  16  27  31  32  33  34  35 0
 6-311+G(2d,p)
 ****
 36  37 0
 6-311+G(2d,p)
 ****
 1  2  3  4  5  17  18  19  20  21  22  23  24  25 0
 3-21G
 ****
 26  28  29  30  38  39  40  41  42  43  44  45 0
 3-21G
 ****


