%nproc=1
%NoSave
%Mem=1900MB
#P OB98/GEN NMR

erre ene a

0 1
  C     1232.118    2261.182     -54.509
  O     1233.326    2261.627     -53.834
  P     1234.257    2260.700     -52.924
  C     1236.292    2260.801     -54.590
  O     1235.325    2260.009     -53.887
  C     1237.097    2260.004     -55.622
  O     1236.238    2259.395     -56.596
  C     1238.050    2260.958     -56.391
  O     1239.308    2261.286     -55.832
  C     1238.151    2260.346     -57.821
  O     1239.266    2259.464     -57.949
  C     1236.841    2259.525     -57.902
  N     1235.174    2259.833     -62.741
  C     1236.256    2259.135     -62.230
  N     1237.033    2258.466     -63.124
  N     1236.535    2259.111     -60.983
  C     1235.798    2259.916     -60.184
  C     1234.693    2260.652     -60.588
  C     1234.309    2260.635     -61.983
  O     1233.368    2261.200     -62.481
  N     1234.132    2261.314     -59.527
  C     1234.891    2261.027     -58.489
  N     1235.923    2260.155     -58.854
  O     1233.525    2259.836     -51.986
  O     1235.119    2261.768     -52.083
  H     1239.214    2258.745     -57.272
  H     1235.280    2261.355     -51.235
  H     1234.995    2259.811     -63.735
  H     1234.756    2261.381     -57.489
  H     1237.015    2258.483     -58.255
  H     1238.263    2261.127     -58.538
  H     1236.917    2258.530     -64.106
  H     1237.516    2261.891     -56.535
  H     1237.954    2258.125     -62.786
  H     1237.633    2259.181     -55.128
  H     1236.943    2261.239     -53.832
  H     1235.757    2261.653     -55.089
  P     1239.677    2262.681     -55.086
  C     1239.937    2261.660     -52.738
  O     1239.209    2262.531     -53.576
  O     1238.625    2263.754     -55.706
  O     1241.081    2263.156     -55.236
  H     1238.916    2264.637     -55.492
  H     1239.330    2261.417     -51.815
  H     1240.843    2262.215     -52.421
  H     1240.218    2260.716     -53.268
  H     1231.689    2262.000     -55.048
  H     1231.416    2260.825     -53.785
  H     1232.360    2260.393     -55.190

 3  4  5  6  7  8  9  10  11  12  23  26  30  31 0
 6-311+G(2d,p)
 ****
 33  35  36  37  38 0
 6-311+G(2d,p)
 ****
 1  2  13  14  15  16  17  18  19  20  21  22  24  25 0
 3-21G
 ****
 27  28  29  32  34  39  40  41  42  43  44  45  46  47  48  49 0
 3-21G
 ****


