%nproc=1
%NoSave
%Mem=1900MB
#P OB98/GEN NMR

erre ene a

0 1
  C     -898.500    -903.221    -214.137
  O     -897.840    -901.973    -214.037
  P     -896.430    -901.885    -214.790
  C     -896.810    -899.693    -216.091
  O     -896.590    -901.073    -216.189
  C     -896.270    -898.926    -217.316
  O     -894.860    -898.722    -217.181
  C     -896.570    -899.664    -218.632
  O     -896.760    -898.665    -219.668
  C     -895.220    -900.374    -218.924
  O     -895.120    -900.702    -220.268
  C     -894.240    -899.296    -218.383
  N     -892.960    -899.862    -218.120
  C     -891.860    -899.423    -218.895
  O     -892.050    -898.672    -219.826
  N     -890.580    -899.845    -218.611
  C     -890.410    -900.724    -217.638
  N     -889.150    -901.145    -217.399
  C     -891.530    -901.279    -216.838
  C     -892.730    -900.778    -217.098
  O     -896.120    -903.398    -215.247
  O     -895.330    -901.353    -213.885
  H     -896.000    -901.193    -220.526
  H     -895.250    -903.639    -215.004
  H     -891.340    -902.004    -216.058
  H     -893.660    -901.094    -216.558
  H     -894.090    -898.463    -219.144
  H     -895.160    -901.302    -218.294
  H     -897.410    -900.356    -218.638
  H     -896.730    -897.931    -217.376
  H     -888.430    -900.740    -217.974
  H     -896.340    -899.266    -215.184
  H     -888.910    -901.833    -216.673
  H     -897.910    -899.506    -215.999
  P     -898.240    -897.990    -219.740
  C     -897.180    -895.651    -219.237
  O     -898.060    -896.662    -218.843
  O     -899.060    -898.947    -218.842
  O     -898.800    -897.775    -221.082
  H     -900.000    -898.638    -218.843
  H     -897.300    -894.771    -218.608
  H     -897.400    -895.368    -220.267
  H     -896.130    -895.989    -219.191
  H     -899.427    -903.178    -213.604
  H     -897.882    -903.986    -213.716
  H     -898.690    -903.442    -215.166

 3  4  5  6  7  8  9  10  11  12  13  21  23  27  28  29  30  32 0
 6-311+G(2d,p)
 ****
 34  35 0
 6-311+G(2d,p)
 ****
 1  2  14  15  16  17  18  19  20  22  24  25  26 0
 3-21G
 ****
 31  33  36  37  38  39  40  41  42  43  44  45  46 0
 3-21G
 ****


