%nproc=1
%NoSave
%Mem=1900MB
#P OB98/GEN NMR

erre ene a

0 1
  C     -620.259      16.003     -92.997
  O     -620.415      17.217     -93.710
  H     -620.506      15.168     -93.660
  H     -620.936      15.981     -92.138
  H     -619.224      15.895     -92.657
  P     -620.205      18.571     -92.869
  C     -622.753      18.993     -93.261
  O     -621.684      18.908     -92.327
  C     -623.914      19.776     -92.651
  O     -624.673      18.940     -91.750
  C     -623.494      20.986     -91.824
  O     -623.128      22.111     -92.609
  C     -624.786      21.235     -91.054
  O     -625.757      21.844     -91.922
  C     -625.175      19.786     -90.682
  N     -624.643      19.359     -89.382
  C     -625.568      19.168     -88.351
  O     -626.775      19.363     -88.537
  N     -625.113      18.805     -87.108
  C     -623.847      18.612     -86.920
  N     -623.446      18.257     -85.659
  C     -622.829      18.788     -87.982
  C     -623.295      19.156     -89.172
  O     -619.992      19.683     -94.003
  O     -619.145      18.538     -91.822
  H     -626.619      21.749     -91.486
  H     -619.999      20.586     -93.599
  H     -621.782      18.634     -87.771
  H     -622.611      19.303     -90.001
  H     -626.271      19.673     -90.668
  H     -624.652      21.907     -90.208
  H     -622.701      20.732     -91.113
  H     -624.584      20.065     -93.471
  H     -624.150      18.200     -84.941
  H     -623.075      17.975     -93.512
  H     -622.475      18.232     -85.380
  H     -622.416      19.497     -94.173
  P     -622.741      23.458     -91.833
  C     -624.889      24.754     -92.550
  O     -624.116      24.208     -91.484
  O     -622.098      24.372     -92.978
  O     -621.803      23.272     -90.676
  H     -621.384      24.937     -92.619
  H     -625.768      25.216     -92.153
  H     -625.171      23.972     -93.223
  H     -624.308      25.484     -93.074

 6  7  8  9  10  11  12  13  14  15  16  26  30  31  32  33  35 0
 6-311+G(2d,p)
 ****
 37  38 0
 6-311+G(2d,p)
 ****
 1  2  3  4  5  17  18  19  20  21  22  23  24  25 0
 3-21G
 ****
 27  28  29  34  36  39  40  41  42  43  44  45  46 0
 3-21G
 ****


