%nproc=1
%NoSave
%Mem=1900MB
#P OB98/GEN NMR

erre ene a

0 1
  C      -87.575     567.825      66.811
  O      -86.728     568.420      65.854
  H      -88.592     567.801      66.406
  H      -87.588     568.417      67.730
  H      -87.260     566.803      67.026
  P      -85.174     568.627      66.197
  C      -84.669     566.178      65.614
  O      -84.392     567.539      65.304
  C      -84.648     565.315      64.353
  O      -85.891     565.485      63.621
  C      -83.498     565.651      63.391
  O      -82.850     564.449      62.967
  C      -84.200     566.296      62.205
  O      -83.456     566.197      60.993
  C      -85.541     565.554      62.227
  N      -86.556     566.232      61.431
  C      -86.736     565.757      60.128
  O      -86.060     564.812      59.714
  N      -87.630     566.396      59.308
  C      -88.259     567.448      59.737
  N      -89.108     568.048      58.864
  C      -88.077     568.000      61.096
  C      -87.223     567.349      61.883
  O      -84.850     568.599      67.655
  O      -84.778     570.010      65.494
  H      -83.276     565.248      60.819
  H      -83.979     570.377      65.938
  H      -88.621     568.881      61.401
  H      -87.023     567.676      62.897
  H      -85.428     564.530      61.853
  H      -84.359     567.362      62.417
  H      -82.755     566.320      63.828
  H      -84.614     564.259      64.656
  H      -89.197     567.637      57.941
  H      -85.651     566.123      66.101
  H      -89.633     568.885      59.075
  H      -83.903     565.820      66.309
  P      -81.283     564.337      63.285
  C      -80.917     562.796      65.341
  O      -81.008     562.891      63.928
  O      -81.078     565.348      64.508
  O      -80.412     564.695      62.123
  H      -80.574     566.129      64.210
  H      -80.733     561.779      65.619
  H      -81.835     563.125      65.780
  H      -80.114     563.412      65.689

 6  7  8  9  10  11  12  13  14  15  16  26  30  31  32  33  35 0
 6-311+G(2d,p)
 ****
 37  38 0
 6-311+G(2d,p)
 ****
 1  2  3  4  5  17  18  19  20  21  22  23  24  25 0
 3-21G
 ****
 27  28  29  34  36  39  40  41  42  43  44  45  46 0
 3-21G
 ****


