%nproc=1
%NoSave
%Mem=1900MB
#P OB98/GEN NMR

erre ene a

0 1
  C      -68.708      21.765      94.477
  O      -68.388      20.391      94.618
  P      -67.496      19.940      95.870
  C      -65.375      20.345      94.421
  O      -66.026      20.549      95.666
  C      -64.142      21.245      94.311
  O      -64.519      22.620      94.626
  C      -62.996      20.857      95.259
  O      -61.762      21.157      94.592
  C      -63.194      21.813      96.421
  O      -62.031      21.969      97.219
  C      -63.622      23.074      95.661
  N      -64.254      24.071      96.525
  C      -63.525      25.221      96.814
  O      -62.391      25.442      96.390
  N      -64.122      26.103      97.674
  C      -65.304      25.914      98.329
  O      -65.728      26.691      99.177
  C      -66.030      24.682      97.984
  C      -65.482      23.831      97.112
  O      -67.294      18.371      95.629
  O      -68.102      20.227      97.203
  H      -62.235      22.625      97.911
  H      -67.909      17.858      96.187
  H      -63.613      26.948      97.886
  H      -66.982      24.509      98.470
  H      -65.985      22.905      96.855
  H      -62.755      23.525      95.159
  H      -63.998      21.442      97.066
  H      -63.019      19.806      95.566
  H      -63.794      21.235      93.270
  H      -66.067      20.584      93.612
  H      -65.093      19.291      94.322
  P      -60.471      20.275      94.965
  C      -59.382      22.042      96.555
  O      -59.978      20.772      96.406
  O      -59.388      20.889      93.955
  O      -60.679      18.806      94.801
  H      -59.428      21.857      93.907
  H      -59.819      22.774      95.871
  H      -58.309      21.964      96.366
  H      -59.533      22.386      97.582
  H      -69.304      21.904      93.599
  H      -67.806      22.334      94.390
  H      -69.255      22.094      95.336

 3  4  5  6  7  8  9  10  11  12  13  23  28  29  30  31  32 0
 6-311+G(2d,p)
 ****
 33  34 0
 6-311+G(2d,p)
 ****
 1  2  14  15  16  17  18  19  20  21  22  24  25  26 0
 3-21G
 ****
 27  35  36  37  38  39  40  41  42  43  44  45 0
 3-21G
 ****


