%nproc=1
%NoSave
%Mem=1900MB
#P OB98/GEN NMR

erre ene a

0 1
  C     -164.689    -256.608     354.309
  O     -163.381    -256.031     354.382
  P     -162.447    -256.463     355.611
  C     -163.705    -255.160     357.471
  O     -163.319    -256.427     356.959
  C     -164.511    -255.303     358.771
  O     -163.653    -255.734     359.865
  C     -165.182    -254.002     359.221
  O     -166.384    -254.335     359.924
  C     -164.180    -253.438     360.211
  O     -164.775    -252.465     361.068
  C     -163.718    -254.724     360.894
  N     -161.378    -254.567     365.359
  C     -162.720    -254.699     365.060
  N     -163.559    -254.844     366.108
  N     -163.198    -254.689     363.844
  C     -162.235    -254.572     362.897
  C     -160.878    -254.428     363.063
  C     -160.367    -254.415     364.416
  O     -159.190    -254.289     364.740
  N     -160.235    -254.313     361.857
  C     -161.203    -254.381     360.965
  N     -162.430    -254.572     361.543
  O     -161.463    -255.208     355.772
  O     -161.682    -257.723     355.375
  H     -165.473    -252.920     361.586
  H     -160.571    -255.449     355.466
  H     -161.066    -254.571     366.314
  H     -161.074    -254.294     359.896
  H     -164.423    -255.063     361.661
  H     -163.352    -252.960     359.671
  H     -163.251    -254.911     367.067
  H     -165.417    -253.303     358.413
  H     -164.543    -254.984     365.918
  H     -165.270    -256.080     358.627
  H     -164.305    -254.623     356.731
  H     -162.809    -254.551     357.623
  P     -167.691    -253.475     359.576
  C     -167.639    -251.986     361.703
  O     -167.499    -252.059     360.296
  O     -168.844    -254.178     360.434
  O     -168.029    -253.419     358.123
  H     -169.714    -254.019     360.029
  H     -166.647    -251.919     362.155
  H     -168.165    -252.856     362.107
  H     -168.207    -251.086     361.952
  H     -165.197    -256.233     353.445
  H     -165.242    -256.350     355.188
  H     -164.606    -257.672     354.239

 3  4  5  6  7  8  9  10  11  12  23  26  30  31 0
 6-311+G(2d,p)
 ****
 33  35  36  37  38 0
 6-311+G(2d,p)
 ****
 1  2  13  14  15  16  17  18  19  20  21  22  24  25 0
 3-21G
 ****
 27  28  29  32  34  39  40  41  42  43  44  45  46  47  48  49 0
 3-21G
 ****


