%nproc=1
%NoSave
%Mem=1900MB
#P OB98/GEN NMR

erre ene a

0 1
  C      423.245      20.360      38.043
  O      423.119      20.709      39.408
  H      422.272      20.445      37.553
  H      423.941      21.055      37.566
  H      423.632      19.344      37.936
  P      422.387      19.654      40.371
  C      424.455      20.020      41.897
  O      423.517      19.093      41.368
  C      425.222      19.397      43.061
  O      424.267      19.019      44.095
  C      426.030      18.143      42.689
  O      427.266      18.170      43.410
  C      425.175      17.008      43.217
  O      425.931      15.838      43.506
  C      424.548      17.653      44.448
  N      422.526      14.695      48.057
  C      423.635      15.465      48.041
  N      424.073      16.268      47.049
  C      423.203      16.282      46.024
  C      422.030      15.557      45.902
  C      421.705      14.714      46.979
  N      420.617      13.872      46.980
  N      421.442      15.798      44.676
  C      422.258      16.630      44.061
  N      423.338      16.951      44.837
  O      422.114      18.420      39.383
  O      421.137      20.135      41.021
  H      425.321      15.132      43.801
  H      421.261      18.548      38.930
  H      424.254      15.423      48.930
  H      422.133      17.005      43.054
  H      425.222      17.652      45.315
  H      424.409      16.750      42.475
  H      426.231      18.051      41.616
  H      425.876      20.163      43.496
  H      423.918      20.902      42.259
  H      420.522      13.228      47.750
  H      420.060      13.795      46.142
  H      425.146      20.326      41.108
  P      428.595      18.510      42.582
  C      428.818      20.980      43.387
  O      428.627      20.086      42.293
  O      428.304      17.876      41.143
  O      429.843      17.955      43.186
  H      429.134      17.558      40.740
  H      428.815      21.988      43.029
  H      429.756      20.772      43.858
  H      428.027      20.851      44.096

 6  7  8  9  10  11  12  13  14  15  25  28  32  33  34  35 0
 6-311+G(2d,p)
 ****
 36  39  40 0
 6-311+G(2d,p)
 ****
 1  2  3  4  5  16  17  18  19  20  21  22  23  24 0
 3-21G
 ****
 26  27  29  30  31  37  38  41  42  43  44  45  46  47 0
 3-21G
 ****
 48 0
 3-21G
 ****


