%nproc=1
%NoSave
%Mem=1900MB
#P OB98/GEN NMR

erre ene a

0 1
  C      -66.850      43.032    -100.428
  O      -67.481      42.015     -99.668
  P      -68.569      41.099    -100.413
  C      -67.736      38.749     -99.652
  O      -67.864      39.687    -100.717
  C      -66.719      37.671    -100.022
  O      -65.410      38.255    -100.188
  C      -66.548      36.572     -98.978
  O      -67.636      35.666     -99.005
  C      -65.211      35.980     -99.416
  O      -65.401      35.108    -100.540
  C      -64.429      37.234     -99.851
  N      -59.649      37.200     -98.002
  C      -60.224      36.557     -99.042
  N      -61.504      36.600     -99.463
  C      -62.227      37.422     -98.679
  C      -61.793      38.127     -97.570
  C      -60.432      38.000     -97.238
  N      -59.861      38.657     -96.163
  N      -62.829      38.843     -97.007
  C      -63.868      38.585     -97.769
  N      -63.557      37.738     -98.804
  O      -68.676      41.770    -101.858
  O      -69.898      41.016     -99.731
  H      -65.835      35.630    -101.244
  H      -69.587      41.703    -102.212
  H      -59.552      35.916     -99.621
  H      -64.868      38.985     -97.625
  H      -63.811      37.059    -100.740
  H      -64.713      35.399     -98.626
  H      -66.449      37.010     -97.979
  H      -67.024      37.233    -100.988
  H      -68.703      38.275     -99.464
  H      -58.919      38.396     -95.908
  H      -60.467      39.139     -95.521
  H      -67.427      39.281     -98.744
  P      -68.247      35.211     -97.587
  C      -70.683      35.574     -98.330
  O      -69.630      36.022     -97.492
  O      -67.301      35.992     -96.566
  O      -68.343      33.735     -97.396
  H      -67.201      36.930     -96.800
  H      -71.568      36.170     -98.124
  H      -70.907      34.521     -98.124
  H      -70.405      35.696     -99.380
  H      -66.154      43.560     -99.810
  H      -67.589      43.713    -100.795
  H      -66.331      42.591    -101.253

 3  4  5  6  7  8  9  10  11  12  22  25  29  30  31  32 0
 6-311+G(2d,p)
 ****
 33  36  37 0
 6-311+G(2d,p)
 ****
 1  2  13  14  15  16  17  18  19  20  21  23  24  26 0
 3-21G
 ****
 27  28  34  35  38  39  40  41  42  43  44  45  46  47  48 0
 3-21G
 ****


