%nproc=1
%NoSave
%Mem=1900MB
#P OB98/GEN NMR

erre ene a

0 1
  C     -325.536     460.287     175.696
  O     -326.209     459.102     175.325
  H     -324.622     460.369     175.101
  H     -325.268     460.264     176.752
  H     -326.164     461.161     175.489
  P     -327.531     458.690     176.135
  C     -329.008     457.707     174.255
  O     -328.168     457.436     175.366
  C     -328.600     456.857     173.043
  O     -327.282     457.288     172.588
  C     -328.508     455.350     173.342
  O     -328.821     454.654     172.132
  C     -327.036     455.205     173.680
  O     -326.641     453.854     173.676
  C     -326.416     456.131     172.631
  N     -325.043     456.491     172.944
  C     -324.104     456.287     171.925
  O     -324.454     455.810     170.849
  N     -322.790     456.591     172.171
  C     -322.433     457.000     173.352
  N     -321.111     457.275     173.530
  C     -323.384     457.177     174.467
  C     -324.662     456.906     174.195
  O     -328.487     459.800     176.425
  O     -326.967     458.041     177.484
  H     -325.685     453.769     173.894
  H     -327.082     458.662     178.224
  H     -323.030     457.504     175.433
  H     -325.432     457.007     174.954
  H     -326.438     455.667     171.635
  H     -326.832     455.585     174.689
  H     -329.178     455.034     174.149
  H     -329.300     457.052     172.220
  H     -320.497     457.132     172.742
  H     -328.906     458.770     174.015
  H     -320.718     457.581     174.406
  H     -330.054     457.500     174.512
  P     -330.066     453.649     172.003
  C     -330.587     453.515     169.476
  O     -329.982     452.880     170.596
  O     -331.392     454.288     172.265
  O     -329.776     452.494     173.073
  H     -330.629     452.151     173.407
  H     -330.461     452.903     168.608
  H     -330.124     454.466     169.312
  H     -331.631     453.654     169.666

 6  7  8  9  10  11  12  13  14  15  16  26  30  31  32  33  35 0
 6-311+G(2d,p)
 ****
 37  38 0
 6-311+G(2d,p)
 ****
 1  2  3  4  5  17  18  19  20  21  22  23  24  25 0
 3-21G
 ****
 27  28  29  34  36  39  40  41  42  43  44  45  46 0
 3-21G
 ****


