%nproc=1
%NoSave
%Mem=1900MB
#P OB98/GEN NMR

erre ene a

0 1
  C      -12.000      44.650      21.050
  O      -12.843      43.956      20.155
  H      -12.400      44.542      22.061
  H      -11.965      45.715      20.801
  H      -10.992      44.228      21.027
  P      -12.536      44.060      18.582
  C      -10.350      43.622      17.261
  O      -10.930      44.027      18.491
  C       -9.108      44.459      16.963
  O       -9.439      45.858      16.855
  C       -8.023      44.399      18.034
  O       -7.300      43.180      18.038
  C       -7.168      45.582      17.609
  O       -6.381      45.218      16.461
  C       -8.255      46.617      17.230
  N       -8.565      47.543      18.317
  C       -7.653      48.584      18.533
  O       -6.650      48.693      17.830
  N       -7.880      49.459      19.568
  C       -8.915      49.298      20.332
  N       -9.068      50.164      21.372
  C       -9.909      48.227      20.130
  C       -9.674      47.391      19.121
  O      -13.195      45.185      17.853
  O      -12.919      42.617      18.006
  H       -6.992      44.836      15.806
  H      -12.757      42.634      17.031
  H      -10.750      48.132      20.801
  H      -10.350      46.568      18.920
  H       -7.951      47.195      16.350
  H       -6.475      45.915      18.386
  H       -8.440      44.608      19.025
  H       -8.724      44.143      15.984
  H       -8.345      50.859      21.504
  H      -11.101      43.742      16.475
  H       -9.672      49.944      22.157
  H      -10.053      42.571      17.313
  P       -6.481      42.796      19.366
  C       -7.157      42.259      21.824
  O       -7.534      42.819      20.577
  O       -5.585      44.094      19.619
  O       -5.669      41.542      19.287
  H       -4.699      43.994      19.219
  H       -7.966      42.355      22.517
  H       -6.300      42.776      22.203
  H       -6.920      41.224      21.693

 6  7  8  9  10  11  12  13  14  15  16  26  30  31  32  33  35 0
 6-311+G(2d,p)
 ****
 37  38 0
 6-311+G(2d,p)
 ****
 1  2  3  4  5  17  18  19  20  21  22  23  24  25 0
 3-21G
 ****
 27  28  29  34  36  39  40  41  42  43  44  45  46 0
 3-21G
 ****


