%nproc=1
%NoSave
%Mem=1900MB
#P OB98/GEN NMR

erre ene a

0 1
  C      194.187    -926.142     261.068
  O      193.959    -927.463     261.571
  P      193.718    -927.637     263.154
  C      195.515    -929.450     263.677
  O      195.103    -928.090     263.817
  C      196.798    -929.701     264.478
  O      197.919    -928.980     263.926
  C      196.708    -929.272     265.940
  O      196.076    -930.267     266.734
  C      198.173    -929.173     266.310
  O      198.704    -930.473     266.577
  C      198.790    -928.596     265.017
  N      201.034    -924.707     267.350
  C      201.134    -926.068     267.582
  N      201.965    -926.449     268.591
  N      200.485    -926.971     266.902
  C      199.715    -926.451     265.924
  C      199.526    -925.129     265.600
  C      200.243    -924.138     266.364
  O      200.184    -922.916     266.218
  N      198.654    -924.986     264.547
  C      198.321    -926.226     264.219
  N      198.928    -927.147     265.049
  O      192.829    -928.967     263.225
  O      193.035    -926.476     263.793
  H      198.580    -931.014     265.771
  H      192.274    -928.947     264.025
  H      201.553    -924.051     267.902
  H      197.659    -926.504     263.415
  H      199.778    -929.019     264.819
  H      198.332    -928.570     267.205
  H      202.540    -925.809     269.115
  H      196.211    -928.290     266.033
  H      202.077    -927.441     268.750
  H      197.021    -930.786     264.430
  H      195.675    -929.692     262.617
  H      194.697    -930.098     264.005
  P      194.471    -930.204     266.883
  C      194.184    -929.352     269.335
  O      194.180    -929.046     267.947
  O      194.137    -931.551     267.680
  O      193.720    -930.120     265.598
  H      193.253    -931.874     267.427
  H      194.123    -928.430     269.902
  H      195.098    -929.890     269.609
  H      193.307    -929.974     269.579
  H      194.329    -926.183     260.008
  H      195.060    -925.730     261.529
  H      193.342    -925.525     261.290

 3  4  5  6  7  8  9  10  11  12  23  26  30  31 0
 6-311+G(2d,p)
 ****
 33  35  36  37  38 0
 6-311+G(2d,p)
 ****
 1  2  13  14  15  16  17  18  19  20  21  22  24  25 0
 3-21G
 ****
 27  28  29  32  34  39  40  41  42  43  44  45  46  47  48  49 0
 3-21G
 ****


