%nproc=1
%NoSave
%Mem=1900MB
#P OB98/GEN NMR

erre ene a

0 1
  C       63.995      69.645     414.091
  O       62.683      70.159     414.248
  P       61.587      70.001     413.084
  C       61.524      72.577     412.914
  O       61.698      71.348     412.222
  C       62.525      73.608     412.395
  O       63.730      72.940     411.968
  C       62.043      74.403     411.188
  O       61.114      75.403     411.573
  C       63.370      74.917     410.634
  O       63.819      76.054     411.386
  C       64.306      73.719     410.891
  N       64.518      72.897     409.703
  C       65.733      73.070     409.034
  O       66.572      73.872     409.442
  N       65.989      72.304     407.926
  C       65.101      71.451     407.507
  N       65.436      70.669     406.445
  C       63.788      71.276     408.149
  C       63.567      72.018     409.233
  O       60.211      69.676     413.560
  O       62.203      68.906     412.100
  H       63.435      76.845     410.960
  H       61.969      67.976     412.341
  H       63.076      70.566     407.756
  H       62.633      71.936     409.777
  H       65.279      74.068     411.256
  H       63.319      75.211     409.581
  H       61.574      73.739     410.456
  H       62.783      74.285     413.223
  H       66.405      70.701     406.147
  H       61.704      72.408     413.981
  H       64.942      69.811     406.244
  H       60.494      72.925     412.780
  P       59.572      75.161     411.208
  C       59.586      77.386     409.874
  O       59.303      75.997     409.864
  O       58.793      75.974     412.347
  O       59.168      73.724     411.160
  H       58.464      75.361     413.033
  H       59.579      77.751     408.844
  H       60.574      77.577     410.309
  H       58.820      77.919     410.439
  H       64.567      69.851     414.972
  H       64.461      70.108     413.247
  H       63.948      68.587     413.936

 3  4  5  6  7  8  9  10  11  12  13  23  27  28  29  30  32 0
 6-311+G(2d,p)
 ****
 34  35 0
 6-311+G(2d,p)
 ****
 1  2  14  15  16  17  18  19  20  21  22  24  25  26 0
 3-21G
 ****
 31  33  36  37  38  39  40  41  42  43  44  45  46 0
 3-21G
 ****


