%nproc=1
%NoSave
%Mem=1900MB
#P OB98/GEN NMR

erre ene a

0 1
  C     -566.256     -34.913    -405.265
  O     -566.390     -36.329    -405.118
  P     -567.564     -37.163    -405.830
  C     -566.067     -38.677    -407.271
  O     -567.052     -37.646    -407.271
  C     -565.300     -38.734    -408.618
  O     -564.711     -37.435    -408.913
  C     -564.153     -39.738    -408.647
  O     -564.652     -41.046    -408.862
  C     -563.317     -39.177    -409.807
  O     -563.848     -39.576    -411.068
  C     -563.460     -37.658    -409.595
  N     -558.733     -35.750    -410.008
  C     -559.583     -36.246    -410.929
  N     -560.839     -36.743    -410.732
  C     -561.181     -36.674    -409.432
  C     -560.406     -36.203    -408.389
  C     -559.124     -35.725    -408.701
  N     -558.257     -35.235    -407.760
  N     -561.107     -36.314    -407.188
  C     -562.268     -36.820    -407.526
  N     -562.367     -37.059    -408.876
  O     -568.888     -36.461    -405.859
  O     -567.667     -38.526    -404.991
  H     -564.736     -39.186    -411.146
  H     -568.570     -38.879    -405.041
  H     -559.229     -36.241    -411.950
  H     -563.071     -37.043    -406.817
  H     -563.536     -37.140    -410.568
  H     -562.275     -39.514    -409.766
  H     -563.573     -39.675    -407.715
  H     -566.029     -38.941    -409.404
  H     -566.568     -39.643    -407.110
  H     -557.335     -34.944    -408.057
  H     -558.511     -35.257    -406.779
  H     -565.364     -38.494    -406.453
  P     -565.022     -41.978    -407.598
  C     -567.499     -41.958    -408.291
  O     -566.575     -41.708    -407.264
  O     -564.093     -41.872    -406.423
  O     -565.043     -43.445    -408.196
  H     -564.797     -44.081    -407.503
  H     -567.498     -41.130    -409.006
  H     -568.495     -42.077    -407.870
  H     -567.227     -42.881    -408.837
  H     -565.409     -34.575    -404.706
  H     -567.139     -34.431    -404.901
  H     -566.120     -34.673    -406.299

 3  4  5  6  7  8  9  10  11  12  22  25  29  30  31  32 0
 6-311+G(2d,p)
 ****
 33  36  37 0
 6-311+G(2d,p)
 ****
 1  2  13  14  15  16  17  18  19  20  21  23  24  26 0
 3-21G
 ****
 27  28  34  35  38  39  40  41  42  43  44  45  46  47  48 0
 3-21G
 ****


