%nproc=1
%NoSave
%Mem=1900MB
#P OB98/GEN NMR

erre ene a

0 1
  C      -49.081     295.483     313.761
  O      -47.935     295.181     314.536
  H      -49.679     296.229     314.300
  H      -49.683     294.581     313.620
  H      -48.789     295.896     312.791
  P      -46.827     294.242     313.847
  C      -46.690     292.686     315.964
  O      -46.028     293.557     315.059
  C      -46.163     292.886     317.387
  O      -46.955     293.918     318.034
  C      -46.245     291.622     318.257
  O      -45.113     291.605     319.131
  C      -47.511     291.844     319.077
  O      -47.505     291.085     320.280
  C      -47.491     293.372     319.259
  N      -48.811     293.917     319.562
  C      -49.315     293.670     320.847
  O      -48.654     292.999     321.650
  N      -50.564     294.138     321.167
  C      -51.279     294.745     320.275
  N      -52.518     295.161     320.653
  C      -50.808     294.990     318.893
  C      -49.572     294.563     318.615
  O      -45.794     295.322     313.271
  O      -47.366     293.299     312.823
  H      -48.300     291.324     320.804
  H      -45.588     296.034     313.902
  H      -51.443     295.493     318.181
  H      -49.142     294.713     317.629
  H      -46.805     293.648     320.075
  H      -48.391     291.547     318.491
  H      -46.276     290.703     317.667
  H      -45.132     293.259     317.332
  H      -52.809     294.952     321.602
  H      -46.540     291.644     315.664
  H      -53.179     295.593     320.023
  H      -47.764     292.904     315.915
  P      -44.622     290.212     319.754
  C      -43.137     291.097     321.684
  O      -43.182     290.414     320.431
  O      -44.743     289.023     318.862
  O      -45.581     290.045     321.038
  H      -45.844     289.104     321.092
  H      -42.123     291.161     322.019
  H      -43.717     290.559     322.404
  H      -43.537     292.082     321.568

 6  7  8  9  10  11  12  13  14  15  16  26  30  31  32  33  35 0
 6-311+G(2d,p)
 ****
 37  38 0
 6-311+G(2d,p)
 ****
 1  2  3  4  5  17  18  19  20  21  22  23  24  25 0
 3-21G
 ****
 27  28  29  34  36  39  40  41  42  43  44  45  46 0
 3-21G
 ****


