%nproc=1
%NoSave
%Mem=1900MB
#P OB98/GEN NMR

erre ene a

0 1
  C      201.219     999.676     151.942
  O      200.472     999.220     150.834
  H      202.121    1000.182     151.567
  H      201.531     998.834     152.564
  H      200.637    1000.393     152.533
  P      199.025     998.583     151.091
  C      197.617    1000.691     151.589
  O      197.947     999.673     150.643
  C      197.563    1002.053     150.884
  O      198.899    1002.584     150.724
  C      196.965    1002.000     149.488
  O      195.557    1001.893     149.530
  C      197.490    1003.312     148.904
  O      196.679    1004.420     149.334
  C      198.900    1003.385     149.518
  N      199.950    1002.958     148.598
  C      200.894    1003.916     148.229
  O      200.833    1005.081     148.617
  N      201.866    1003.498     147.365
  C      201.939    1002.267     146.764
  O      202.783    1001.972     145.918
  C      200.902    1001.310     147.172
  C      199.980    1001.685     148.063
  O      198.808     997.996     152.449
  O      198.902     997.459     149.951
  H      195.790    1004.278     148.960
  H      199.027     996.576     150.352
  H      202.541    1004.185     147.078
  H      200.941    1000.315     146.725
  H      199.207    1000.987     148.369
  H      199.125    1004.416     149.838
  H      197.479    1003.311     147.814
  H      197.401    1001.168     148.918
  H      196.991    1002.748     151.526
  H      198.386    1000.708     152.360
  H      196.651    1000.456     152.036
  P      194.753    1001.430     148.228
  C      194.860     998.935     148.892
  O      194.008    1000.046     148.578
  O      195.540    1001.417     146.951
  O      193.539    1002.470     148.140
  H      193.586    1002.953     147.296
  H      194.260     998.075     149.106
  H      195.458     999.175     149.746
  H      195.497     998.727     148.058

 6  7  8  9  10  11  12  13  14  15  16  26  31  32  33  34  35 0
 6-311+G(2d,p)
 ****
 36  37 0
 6-311+G(2d,p)
 ****
 1  2  3  4  5  17  18  19  20  21  22  23  24  25 0
 3-21G
 ****
 27  28  29  30  38  39  40  41  42  43  44  45 0
 3-21G
 ****


