%nproc=1
%NoSave
%Mem=1900MB
#P OB98/GEN NMR

erre ene a

0 1
  C      585.988     534.495     303.559
  O      586.840     535.100     304.509
  H      585.169     534.001     304.088
  H      586.535     533.743     302.979
  H      585.568     535.248     302.890
  P      588.151     535.860     303.989
  C      587.422     538.315     303.634
  O      587.633     537.043     303.032
  C      587.553     539.421     302.587
  O      588.775     539.259     301.839
  C      586.425     539.452     301.558
  O      585.291     540.120     302.090
  C      587.090     540.231     300.440
  O      587.116     541.636     300.779
  C      588.524     539.664     300.464
  N      588.683     538.012     295.670
  C      588.295     539.239     296.169
  N      587.853     540.141     295.268
  N      588.323     539.543     297.441
  C      588.711     538.519     298.232
  C      589.106     537.259     297.855
  C      589.139     536.952     296.440
  O      589.502     535.882     295.957
  N      589.348     536.460     298.943
  C      589.151     537.254     299.978
  N      588.752     538.520     299.602
  O      589.209     534.997     303.370
  O      588.690     536.645     305.274
  H      586.217     541.870     301.084
  H      589.343     536.110     305.764
  H      588.635     537.830     294.678
  H      589.285     536.973     301.019
  H      589.273     540.419     300.201
  H      586.570     540.137     299.488
  H      587.671     539.914     294.303
  H      586.181     538.447     301.195
  H      587.509     541.024     295.627
  H      587.628     540.380     303.123
  H      588.175     538.437     304.420
  H      586.427     538.359     304.088
  P      584.094     540.620     301.137
  C      582.377     539.018     302.217
  O      583.080     539.381     301.044
  O      584.526     541.173     299.826
  O      583.276     541.654     302.042
  H      583.654     542.570     302.015
  H      581.742     538.182     302.008
  H      581.782     539.844     302.546
  H      583.075     538.753     302.984

 6  7  8  9  10  11  12  13  14  15  26  29  33  34 0
 6-311+G(2d,p)
 ****
 36  38  39  40  41 0
 6-311+G(2d,p)
 ****
 1  2  3  4  5  16  17  18  19  20  21  22  23  24  25 0
 3-21G
 ****
 27  28  30  31  32  35  37  42  43  44  45  46  47 0
 3-21G
 ****
 48  49 0
 3-21G
 ****


