%nproc=1
%NoSave
%Mem=1900MB
#P OB98/GEN NMR

erre ene a

0 1
  C      138.136     327.863    -527.952
  O      138.550     327.225    -526.763
  H      137.246     327.356    -528.333
  H      138.927     327.794    -528.707
  H      137.890     328.912    -527.759
  P      139.740     327.926    -525.942
  C      141.220     327.167    -523.907
  O      140.204     326.849    -524.843
  C      140.940     326.484    -522.563
  O      139.761     327.097    -521.971
  C      140.683     324.982    -522.675
  O      141.225     324.339    -521.517
  C      139.165     324.882    -522.631
  O      138.720     323.599    -522.202
  C      138.817     326.047    -521.686
  N      137.438     326.506    -521.854
  C      136.514     326.091    -520.889
  O      136.873     325.364    -519.959
  N      135.199     326.469    -521.018
  C      134.831     327.149    -522.058
  N      133.510     327.477    -522.140
  C      135.760     327.577    -523.121
  C      137.035     327.230    -522.957
  O      138.950     329.024    -525.088
  O      140.837     328.480    -526.796
  H      137.747     323.539    -522.353
  H      138.136     328.682    -524.680
  H      135.397     328.136    -523.977
  H      137.790     327.508    -523.685
  H      138.953     325.747    -520.641
  H      138.748     325.064    -523.632
  H      141.110     324.543    -523.577
  H      141.781     326.692    -521.888
  H      132.904     327.149    -521.396
  H      141.279     328.248    -523.760
  H      133.099     327.953    -522.924
  H      142.177     326.820    -524.313
  P      142.618     323.557    -521.635
  C      144.150     322.684    -519.739
  O      142.848     322.678    -520.310
  O      143.789     324.372    -522.063
  O      142.292     322.427    -522.735
  H      143.071     322.352    -523.324
  H      144.161     322.062    -518.869
  H      144.415     323.684    -519.466
  H      144.854     322.311    -520.453

 6  7  8  9  10  11  12  13  14  15  16  26  30  31  32  33  35 0
 6-311+G(2d,p)
 ****
 37  38 0
 6-311+G(2d,p)
 ****
 1  2  3  4  5  17  18  19  20  21  22  23  24  25 0
 3-21G
 ****
 27  28  29  34  36  39  40  41  42  43  44  45  46 0
 3-21G
 ****


