%nproc=1
%NoSave
%Mem=1900MB
#P OB98/GEN NMR

erre ene a

0 1
  C       58.560     167.199     -68.041
  O       57.353     166.769     -68.638
  H       58.945     168.053     -68.605
  H       59.300     166.396     -68.076
  H       58.398     167.509     -67.006
  P       56.440     165.708     -67.859
  C       54.214     166.657     -68.755
  O       55.094     165.543     -68.718
  C       52.999     166.358     -69.638
  O       53.429     166.352     -71.033
  C       52.339     164.992     -69.355
  O       50.936     165.133     -69.617
  C       53.007     164.125     -70.405
  O       52.344     162.899     -70.569
  C       52.997     165.093     -71.590
  N       53.856     164.676     -72.692
  C       53.288     163.881     -73.680
  O       52.107     163.531     -73.685
  N       54.134     163.477     -74.678
  C       55.460     163.782     -74.777
  O       56.167     163.411     -75.706
  C       56.010     164.603     -73.686
  C       55.196     165.007     -72.709
  O       56.232     165.973     -66.406
  O       57.191     164.313     -68.100
  H       57.744     164.102     -67.326
  H       52.665     162.438     -71.373
  H       53.738     162.898     -75.403
  H       57.063     164.843     -73.724
  H       55.567     165.612     -71.888
  H       51.978     165.239     -71.964
  H       54.032     163.889     -70.105
  H       52.487     164.651     -68.327
  H       52.275     167.175     -69.532
  H       54.765     167.513     -69.159
  H       53.887     166.891     -67.736
  P       49.911     165.814     -68.585
  C       48.564     166.909     -70.491
  O       48.515     166.095     -69.327
  O       50.468     167.019     -67.897
  O       49.555     164.674     -67.519
  H       49.445     165.080     -66.639
  H       47.577     167.021     -70.890
  H       49.194     166.448     -71.222
  H       48.957     167.871     -70.237

 6  7  8  9  10  11  12  13  14  15  16  27  31  32  33  34  35 0
 6-311+G(2d,p)
 ****
 36  37 0
 6-311+G(2d,p)
 ****
 1  2  3  4  5  17  18  19  20  21  22  23  24  25 0
 3-21G
 ****
 26  28  29  30  38  39  40  41  42  43  44  45 0
 3-21G
 ****


