%nproc=1
%NoSave
%Mem=1900MB
#P OB98/GEN NMR

erre ene a

0 1
  C      364.284     -33.049      28.798
  O      363.399     -33.266      29.892
  P      364.033     -33.589      31.326
  C      363.392     -36.088      31.039
  O      364.423     -35.148      31.327
  C      363.980     -37.458      30.694
  O      364.782     -37.341      29.488
  C      364.880     -38.059      31.780
  O      364.720     -39.478      31.731
  C      366.280     -37.703      31.302
  O      367.280     -38.541      31.876
  C      366.099     -37.858      29.792
  N      370.381     -38.292      27.032
  C      369.596     -39.219      27.621
  N      368.470     -39.024      28.340
  C      368.176     -37.715      28.425
  C      368.904     -36.658      27.899
  C      370.056     -36.984      27.167
  N      370.856     -36.044      26.553
  N      368.302     -35.453      28.217
  C      367.234     -35.782      28.915
  N      367.105     -37.138      29.044
  O      362.761     -33.520      32.296
  O      365.108     -32.660      31.773
  H      367.361     -38.313      32.820
  H      362.829     -32.747      32.885
  H      369.913     -40.253      27.499
  H      366.532     -35.081      29.347
  H      366.129     -38.905      29.479
  H      366.513     -36.665      31.574
  H      364.675     -37.686      32.789
  H      363.149     -38.140      30.466
  H      362.819     -35.726      30.180
  H      371.586     -36.362      25.932
  H      370.523     -35.084      26.489
  H      362.722     -36.173      31.897
  P      364.914     -40.283      33.107
  C      367.470     -40.438      32.675
  O      366.432     -40.060      33.561
  O      364.870     -41.817      32.651
  O      363.871     -39.986      34.135
  H      364.543     -42.376      33.381
  H      368.308     -39.750      32.798
  H      367.139     -40.406      31.628
  H      367.794     -41.452      32.917
  H      363.716     -32.846      27.914
  H      364.882     -33.923      28.645
  H      364.919     -32.215      29.013

 3  4  5  6  7  8  9  10  11  12  22  25  29  30  31  32 0
 6-311+G(2d,p)
 ****
 33  36  37 0
 6-311+G(2d,p)
 ****
 1  2  13  14  15  16  17  18  19  20  21  23  24  26 0
 3-21G
 ****
 27  28  34  35  38  39  40  41  42  43  44  45  46  47  48 0
 3-21G
 ****


