%nproc=1
%NoSave
%Mem=1900MB
#P OB98/GEN NMR

erre ene a

0 1
  C      371.367      67.085    -633.438
  O      371.791      65.709    -633.453
  P      371.284      64.787    -634.668
  C      369.018      64.226    -633.537
  O      370.256      63.728    -634.013
  C      367.999      63.087    -633.407
  O      367.595      62.646    -634.707
  C      368.569      61.827    -632.712
  O      368.561      61.950    -631.290
  C      367.557      60.759    -633.180
  O      366.398      60.824    -632.338
  C      367.220      61.239    -634.605
  N      366.894      57.660    -638.182
  C      365.923      58.136    -637.336
  N      364.683      57.613    -637.446
  N      366.157      59.058    -636.426
  C      367.428      59.516    -636.438
  C      368.475      59.099    -637.217
  C      368.217      58.049    -638.194
  O      369.051      57.536    -638.912
  N      369.617      59.829    -636.957
  C      369.254      60.694    -636.014
  N      367.933      60.503    -635.641
  O      372.575      63.921    -635.002
  O      370.777      65.526    -635.869
  H      366.652      60.406    -631.482
  H      372.537      63.606    -635.948
  H      366.662      56.963    -638.872
  H      369.897      61.439    -635.587
  H      366.144      61.163    -634.797
  H      367.961      59.755    -633.120
  H      364.421      57.005    -638.217
  H      369.559      61.556    -633.110
  H      363.949      57.990    -636.865
  H      367.129      63.445    -632.856
  H      368.613      64.966    -634.257
  H      369.153      64.711    -632.582
  P      370.010      61.793    -630.576
  C      370.484      59.274    -631.039
  O      370.052      60.254    -630.114
  O      369.818      62.624    -629.214
  O      371.168      62.274    -631.390
  H      370.668      62.923    -628.892
  H      371.299      59.644    -631.671
  H      369.654      58.939    -631.654
  H      370.870      58.406    -630.466
  H      371.776      67.575    -632.579
  H      370.299      67.129    -633.398
  H      371.711      67.574    -634.325

 3  4  5  6  7  8  9  10  11  12  23  26  30  31  33  0
 6-311+G(2d,p)
 ****
 35  36  37  38 0
 6-311+G(2d,p)
 ****
 1  2  13  14  15  16  17  18  19  20  21  22  24  25  27  28  29 0
 3-21G
 ****
 32  34  39  40  41  42  43  44  45  46  47  48  49 0
 3-21G
 ****


