%nproc=1
%NoSave
%Mem=1900MB
#P OB98/GEN NMR

erre ene a

0 1
  C      -32.876      71.205      -5.778
  O      -32.674      70.346      -4.669
  P      -33.273      68.864      -4.657
  C      -35.469      68.718      -3.225
  O      -34.854      68.962      -4.471
  C      -34.987      69.771      -2.218
  O      -35.018      71.083      -2.817
  C      -35.868      69.801      -0.970
  O      -35.315      68.988       0.052
  C      -35.898      71.277      -0.621
  O      -34.710      71.647       0.104
  C      -35.895      71.929      -2.024
  N      -37.181      72.050      -2.739
  C      -38.122      72.979      -2.304
  O      -37.944      73.744      -1.362
  N      -39.314      72.980      -2.988
  C      -39.618      72.193      -4.063
  O      -40.750      72.032      -4.505
  C      -38.497      71.442      -4.633
  C      -37.356      71.386      -3.945
  O      -32.770      68.282      -3.254
  O      -32.865      67.997      -5.803
  H      -34.816      72.577       0.372
  H      -31.978      67.728      -3.377
  H      -40.052      73.552      -2.591
  H      -38.653      70.915      -5.565
  H      -36.523      70.804      -4.329
  H      -35.448      72.930      -1.990
  H      -36.737      71.511       0.031
  H      -36.888      69.479      -1.219
  H      -33.947      69.551      -1.944
  H      -35.218      67.712      -2.873
  H      -36.558      68.762      -3.326
  P      -36.285      68.276       1.107
  C      -36.027      69.278       3.454
  O      -36.641      69.409       2.185
  O      -35.787      66.987       1.672
  O      -37.644      68.078       0.280
  H      -37.688      67.166      -0.073
  H      -36.204      70.193       4.024
  H      -34.950      69.128       3.343
  H      -36.468      68.435       3.990
  H      -32.400      72.145      -5.592
  H      -33.925      71.359      -5.923
  H      -32.456      70.759      -6.655

 3  4  5  6  7  8  9  10  11  12  13  23  28  29  30  31  32 0
 6-311+G(2d,p)
 ****
 33  34 0
 6-311+G(2d,p)
 ****
 1  2  14  15  16  17  18  19  20  21  22  24  25  26  27 0
 3-21G
 ****
 35  36  37  38  39  40  41  42  43  44  45 0
 3-21G
 ****


