%nproc=1
%NoSave
%Mem=1900MB
#P OB98/GEN NMR

erre ene a

0 1
  C       16.206    -182.984      91.783
  O       16.690    -184.115      92.489
  P       16.233    -185.569      91.993
  C       18.293    -185.674      90.414
  O       16.887    -185.827      90.548
  C       18.952    -187.004      90.045
  O       18.185    -187.653      88.995
  C       20.387    -186.856      89.532
  O       21.157    -187.998      89.941
  C       20.235    -186.927      88.028
  O       21.448    -187.339      87.396
  C       19.086    -187.927      87.904
  N       19.605    -188.181      82.882
  C       20.464    -188.609      83.874
  N       21.658    -189.091      83.472
  N       20.175    -188.576      85.150
  C       18.945    -188.062      85.407
  C       17.999    -187.620      84.506
  C       18.338    -187.654      83.103
  O       17.635    -187.265      82.174
  N       16.859    -187.204      85.142
  C       17.125    -187.350      86.428
  N       18.391    -187.833      86.637
  O       14.678    -185.364      91.671
  O       16.434    -186.658      92.991
  H       21.241    -187.479      86.452
  H       14.138    -185.774      92.372
  H       19.879    -188.220      81.914
  H       16.454    -187.101      87.235
  H       19.437    -188.960      88.019
  H       19.958    -185.945      87.630
  H       21.968    -189.083      82.511
  H       20.894    -185.942      89.860
  H       22.324    -189.368      84.180
  H       18.919    -187.665      90.919
  H       18.705    -185.321      91.361
  H       18.508    -184.923      89.646
  P       22.737    -187.757      90.108
  C       22.754    -187.085      92.623
  O       22.892    -186.675      91.276
  O       23.128    -186.950      88.783
  O       23.533    -189.009      90.267
  H       24.069    -187.088      88.567
  H       23.703    -186.923      93.140
  H       22.476    -188.137      92.708
  H       21.981    -186.476      93.097
  H       16.595    -182.092      92.228
  H       15.137    -182.967      91.826
  H       16.521    -183.039      90.762

 3  4  5  6  7  8  9  10  11  12  23  26  30  31 0
 6-311+G(2d,p)
 ****
 33  35  36  37  38 0
 6-311+G(2d,p)
 ****
 1  2  13  14  15  16  17  18  19  20  21  22  24  25 0
 3-21G
 ****
 27  28  29  32  34  39  40  41  42  43  44  45  46  47  48  49 0
 3-21G
 ****


