%nproc=1
%NoSave
%Mem=1900MB
#P OB98/GEN NMR

erre ene a

0 1
  C     -168.357     641.112     707.858
  O     -168.922     642.407     707.790
  P     -168.864     643.326     709.106
  C     -170.435     643.793     711.136
  O     -170.190     643.045     709.950
  C     -171.718     644.635     710.953
  O     -172.839     643.785     710.632
  C     -172.129     645.392     712.219
  O     -171.340     646.564     712.382
  C     -173.595     645.673     711.933
  O     -173.749     646.843     711.105
  C     -174.026     644.413     711.173
  N     -174.808     643.486     711.995
  C     -175.799     644.041     712.759
  O     -176.044     645.264     712.777
  N     -176.528     643.180     713.543
  C     -176.294     641.844     713.672
  O     -176.933     641.132     714.438
  C     -175.193     641.301     712.856
  C     -174.505     642.125     712.071
  O     -169.061     644.801     708.563
  O     -167.606     643.177     709.902
  H     -173.395     647.599     711.623
  H     -168.515     645.440     709.082
  H     -177.274     643.561     714.088
  H     -174.995     640.241     712.934
  H     -173.676     641.765     711.467
  H     -174.629     644.683     710.301
  H     -174.155     645.857     712.847
  H     -172.043     644.729     713.090
  H     -171.553     645.328     710.121
  H     -169.592     644.457     711.326
  H     -170.542     643.102     711.977
  P     -170.758     646.839     713.852
  C     -171.913     647.282     716.175
  O     -172.070     647.064     714.785
  O     -170.112     648.289     713.674
  O     -169.789     645.800     714.311
  H     -170.616     648.828     713.028
  H     -171.014     647.863     716.389
  H     -171.867     646.321     716.683
  H     -172.779     647.829     716.533
  H     -168.470     640.623     706.913
  H     -168.856     640.544     708.615
  H     -167.317     641.189     708.097

 3  4  5  6  7  8  9  10  11  12  13  23  28  29  30  31  32 0
 6-311+G(2d,p)
 ****
 33  34 0
 6-311+G(2d,p)
 ****
 1  2  14  15  16  17  18  19  20  21  22  24  25  26 0
 3-21G
 ****
 27  35  36  37  38  39  40  41  42  43  44  45 0
 3-21G
 ****


