%nproc=1
%NoSave
%Mem=1900MB
#P OB98/GEN NMR

erre ene a

0 1
  C      441.170    -171.645     207.679
  O      441.760    -172.533     206.717
  P      442.179    -171.910     205.298
  C      440.991    -170.572     203.405
  O      440.852    -171.390     204.560
  C      439.807    -170.793     202.455
  O      439.824    -172.118     201.902
  C      438.458    -170.662     203.144
  O      438.123    -169.300     203.339
  C      437.534    -171.393     202.173
  O      436.996    -170.504     201.181
  C      438.475    -172.440     201.521
  N      438.133    -173.806     201.878
  C      437.501    -174.556     200.884
  O      437.250    -174.054     199.784
  N      437.153    -175.856     201.163
  C      437.391    -176.347     202.342
  N      437.013    -177.639     202.556
  C      438.031    -175.577     203.430
  C      438.369    -174.325     203.130
  O      442.594    -173.197     204.448
  O      443.293    -170.916     205.380
  H      436.378    -169.910     201.663
  H      443.308    -172.970     203.817
  H      438.198    -176.029     204.397
  H      438.845    -173.683     203.869
  H      438.431    -172.359     200.424
  H      436.684    -171.844     202.690
  H      438.475    -171.192     204.107
  H      439.881    -170.064     201.635
  H      436.578    -178.136     201.794
  H      441.923    -170.793     202.890
  H      437.150    -178.119     203.441
  H      441.054    -169.517     203.721
  P      438.361    -168.670     204.792
  C      436.874    -168.295     206.856
  O      436.954    -168.823     205.544
  O      438.393    -167.100     204.476
  O      439.568    -169.118     205.544
  H      438.629    -166.595     205.278
  H      435.830    -168.270     207.168
  H      437.268    -167.274     206.878
  H      437.441    -168.927     207.547
  H      440.941    -172.188     208.572
  H      440.271    -171.228     207.275
  H      441.858    -170.858     207.906

 3  4  5  6  7  8  9  10  11  12  13  21  23  27  28  29  30  32 0
 6-311+G(2d,p)
 ****
 34  35 0
 6-311+G(2d,p)
 ****
 1  2  14  15  16  17  18  19  20  22  24  25  26 0
 3-21G
 ****
 31  33  36  37  38  39  40  41  42  43  44  45  46 0
 3-21G
 ****


