%nproc=1
%NoSave
%Mem=1900MB
#P OB98/GEN NMR

erre ene a

0 1
  C      222.428    -120.324     386.163
  O      223.230    -119.673     387.127
  H      222.408    -119.714     385.253
  H      221.405    -120.444     386.530
  H      222.853    -121.304     385.921
  P      223.297    -120.362     388.580
  C      221.751    -118.398     389.317
  O      221.995    -119.798     389.332
  C      221.212    -117.954     390.678
  O      221.162    -116.517     390.768
  C      219.790    -118.437     390.976
  O      219.751    -119.790     391.386
  C      219.415    -117.489     392.101
  O      220.059    -117.910     393.320
  C      220.007    -116.157     391.590
  N      219.056    -115.361     390.815
  C      218.503    -114.249     391.466
  O      218.801    -113.983     392.630
  N      217.580    -113.477     390.788
  C      217.253    -113.779     389.575
  N      216.326    -112.990     388.951
  C      217.823    -114.925     388.848
  C      218.705    -115.671     389.519
  O      224.490    -119.589     389.312
  O      223.432    -121.851     388.590
  H      219.706    -118.794     393.531
  H      224.533    -119.859     390.262
  H      217.514    -115.152     387.834
  H      219.170    -116.531     389.051
  H      220.387    -115.551     392.421
  H      218.339    -117.468     392.297
  H      219.121    -118.252     390.122
  H      221.919    -118.306     391.450
  H      215.906    -112.250     389.494
  H      221.017    -118.178     388.535
  H      215.877    -113.250     388.087
  H      222.679    -117.853     389.101
  P      218.710    -120.763     390.621
  C      217.503    -121.190     392.887
  O      217.372    -120.819     391.516
  O      219.359    -122.209     390.832
  O      218.495    -120.440     389.171
  H      219.251    -122.762     390.026
  H      216.539    -121.184     393.352
  H      218.144    -120.493     393.385
  H      217.924    -122.171     392.952

 6  7  8  9  10  11  12  13  14  15  16  26  30  31  32  33  35 0
 6-311+G(2d,p)
 ****
 37  38 0
 6-311+G(2d,p)
 ****
 1  2  3  4  5  17  18  19  20  21  22  23  24  25 0
 3-21G
 ****
 27  28  29  34  36  39  40  41  42  43  44  45  46 0
 3-21G
 ****


