%nproc=1
%NoSave
%Mem=1900MB
#P OB98/GEN NMR

erre ene a

0 1
  C       -8.932     -36.257      41.610
  O       -7.898     -35.479      41.034
  P       -7.718     -33.966      41.522
  C       -5.856     -34.683      43.188
  O       -7.085     -34.000      42.995
  C       -5.065     -34.044      44.332
  O       -5.932     -33.902      45.497
  C       -3.836     -34.854      44.771
  O       -2.828     -33.920      45.183
  C       -4.356     -35.608      45.981
  O       -3.324     -36.082      46.831
  C       -5.253     -34.532      46.603
  N       -6.197     -35.073      47.578
  C       -6.152     -34.553      48.869
  O       -5.370     -33.675      49.229
  N       -7.008     -35.124      49.771
  C       -7.818     -36.197      49.543
  O       -8.474     -36.737      50.427
  C       -7.824     -36.706      48.163
  C       -7.028     -36.129      47.259
  O       -9.223     -33.478      41.766
  O       -6.994     -33.083      40.560
  H       -2.914     -35.306      47.255
  H       -9.535     -32.946      41.011
  H       -6.997     -34.752      50.709
  H       -8.472     -37.543      47.941
  H       -6.998     -36.497      46.238
  H       -4.638     -33.759      47.083
  H       -4.942     -36.471      45.648
  H       -3.447     -35.518      43.993
  H       -4.765     -33.034      44.026
  H       -5.268     -34.628      42.271
  H       -6.052     -35.740      43.399
  P       -1.300     -34.419      45.186
  C       -0.813     -32.895      43.119
  O       -0.733     -34.175      43.710
  O       -1.504     -36.006      45.265
  O       -0.490     -33.863      46.312
  H       -2.210     -36.321      44.677
  H       -0.698     -32.100      43.862
  H       -1.779     -32.786      42.621
  H       -0.019     -32.798      42.375
  H       -8.921     -37.238      41.182
  H       -9.877     -35.794      41.417
  H       -8.779     -36.327      42.667

 3  4  5  6  7  8  9  10  11  12  13  23  28  29  30  31  32 0
 6-311+G(2d,p)
 ****
 33  34 0
 6-311+G(2d,p)
 ****
 1  2  14  15  16  17  18  19  20  21  22  24  25  26 0
 3-21G
 ****
 27  35  36  37  38  39  40  41  42  43  44  45 0
 3-21G
 ****


