%nproc=1
%NoSave
%Mem=1900MB
#P OB98/GEN NMR

erre ene a

0 1
  C     -226.896     257.637    -227.262
  O     -225.645     257.720    -227.919
  P     -224.515     256.617    -227.670
  C     -222.366     257.139    -226.244
  O     -223.766     256.960    -226.299
  C     -222.001     258.475    -226.904
  O     -222.888     259.515    -226.447
  C     -220.572     258.895    -226.575
  O     -219.681     258.477    -227.601
  C     -220.690     260.401    -226.460
  O     -220.660     261.018    -227.764
  C     -222.093     260.554    -225.820
  N     -222.210     260.407    -224.354
  C     -221.585     261.326    -223.522
  O     -220.943     262.295    -223.927
  N     -221.703     261.080    -222.173
  C     -222.403     260.052    -221.605
  O     -222.299     259.704    -220.437
  C     -223.255     259.289    -222.525
  C     -223.107     259.479    -223.835
  O     -223.418     256.965    -228.783
  O     -224.966     255.197    -227.753
  H     -219.845     260.711    -228.202
  H     -223.514     256.375    -229.552
  H     -221.132     261.659    -221.562
  H     -223.933     258.558    -222.108
  H     -223.703     258.903    -224.537
  H     -222.540     261.523    -226.090
  H     -219.847     260.825    -225.908
  H     -220.271     258.490    -225.602
  H     -222.129     258.377    -227.992
  H     -221.861     256.309    -226.759
  H     -222.026     257.126    -225.201
  P     -218.100     258.516    -227.339
  C     -217.030     260.540    -228.493
  O     -217.709     260.073    -227.342
  O     -217.274     257.643    -228.227
  O     -217.975     258.081    -225.795
  H     -217.758     257.128    -225.736
  H     -216.985     261.633    -228.453
  H     -217.559     260.238    -229.402
  H     -216.010     260.141    -228.512
  H     -227.510     258.462    -227.558
  H     -226.745     257.667    -226.203
  H     -227.378     256.720    -227.528

 3  4  5  6  7  8  9  10  11  12  13  23  28  29  30  31  32 0
 6-311+G(2d,p)
 ****
 33  34 0
 6-311+G(2d,p)
 ****
 1  2  14  15  16  17  18  19  20  21  22  24  25  26  27 0
 3-21G
 ****
 35  36  37  38  39  40  41  42  43  44  45 0
 3-21G
 ****


