%nproc=1
%NoSave
%Mem=1900MB
#P OB98/GEN NMR

erre ene a

0 1
  C      186.342     569.876     240.463
  O      186.000     570.397     239.195
  H      185.569     570.157     241.180
  H      187.299     570.290     240.798
  H      186.407     568.781     240.429
  P      186.905     570.016     237.927
  C      188.308     571.752     236.637
  O      188.106     571.081     237.878
  C      189.097     573.044     236.869
  O      188.304     573.981     237.633
  C      190.391     572.848     237.668
  O      191.394     572.273     236.848
  C      190.652     574.276     238.118
  O      191.241     575.053     237.061
  C      189.222     574.773     238.429
  N      188.891     574.696     239.852
  C      189.399     575.726     240.654
  O      190.098     576.635     240.222
  N      189.112     575.619     241.992
  C      188.466     574.577     242.597
  O      188.426     574.422     243.814
  C      187.887     573.577     241.693
  C      188.123     573.675     240.383
  O      186.173     569.828     236.641
  O      187.645     568.670     238.387
  H      187.200     567.903     237.983
  H      190.578     575.094     236.345
  H      189.525     576.323     242.592
  H      187.306     572.772     242.127
  H      187.735     572.924     239.702
  H      189.100     575.818     238.102
  H      191.335     574.325     238.967
  H      190.195     572.221     238.546
  H      189.309     573.499     235.893
  H      187.341     571.993     236.202
  H      188.851     571.083     235.960
  P      192.712     571.635     237.496
  C      195.096     572.432     237.986
  O      193.749     572.817     237.822
  O      193.303     570.493     236.729
  O      192.240     571.152     238.960
  H      192.470     570.205     239.072
  H      195.691     573.296     238.198
  H      195.447     571.970     237.087
  H      195.172     571.738     238.797

 6  7  8  9  10  11  12  13  14  15  16  27  31  32  33  34  35 0
 6-311+G(2d,p)
 ****
 36  37 0
 6-311+G(2d,p)
 ****
 1  2  3  4  5  17  18  19  20  21  22  23  24  25 0
 3-21G
 ****
 26  28  29  30  38  39  40  41  42  43  44  45 0
 3-21G
 ****


