%nproc=1
%NoSave
%Mem=1900MB
#P OB98/GEN NMR

erre ene a

0 1
  C      778.525     560.261     402.360
  O      778.321     561.658     402.474
  P      777.062     562.148     403.345
  C      774.510     562.452     402.839
  O      775.748     561.828     402.462
  C      773.622     562.663     401.623
  O      774.206     563.679     400.750
  C      773.373     561.407     400.800
  O      772.020     561.423     400.329
  C      774.291     561.558     399.619
  O      773.853     560.819     398.476
  C      774.281     563.092     399.437
  N      775.455     563.578     398.700
  C      775.483     563.361     397.326
  O      774.578     562.700     396.781
  N      776.538     563.828     396.585
  C      777.550     564.382     397.206
  N      778.571     564.846     396.427
  C      777.615     564.550     398.672
  C      776.537     564.145     399.330
  O      777.176     563.741     403.272
  O      777.037     561.644     404.746
  H      774.229     561.245     397.674
  H      776.844     564.149     404.092
  H      778.489     564.975     399.132
  H      776.467     564.229     400.408
  H      773.383     563.404     398.860
  H      775.310     561.224     399.867
  H      773.544     560.478     401.359
  H      772.660     563.084     401.972
  H      778.508     564.712     395.423
  H      774.746     563.429     403.268
  H      779.389     565.283     396.820
  H      774.027     561.852     403.586
  P      771.252     560.013     400.193
  C      771.464     558.016     398.578
  O      772.054     559.214     399.077
  O      769.931     560.459     399.370
  O      770.875     559.296     401.451
  H      769.336     559.694     399.269
  H      772.052     557.648     397.750
  H      770.432     558.227     398.234
  H      771.428     557.266     399.375
  H      779.390     560.075     401.758
  H      777.669     559.812     401.902
  H      778.670     559.841     403.333

 3  4  5  6  7  8  9  10  11  12  13  21  23  27  28  29  30  32 0
 6-311+G(2d,p)
 ****
 34  35 0
 6-311+G(2d,p)
 ****
 1  2  14  15  16  17  18  19  20  22  24  25  26 0
 3-21G
 ****
 31  33  36  37  38  39  40  41  42  43  44  45  46 0
 3-21G
 ****


