%nproc=1
%NoSave
%Mem=1900MB
#P OB98/GEN NMR

erre ene a

0 1
  C      209.773      93.961    -107.430
  O      210.377      94.481    -106.262
  H      209.007      94.661    -107.774
  H      209.300      92.998    -107.216
  H      210.525      93.841    -108.218
  P      211.465      93.555    -105.532
  C      211.401      91.159    -104.519
  O      210.667      92.324    -104.884
  C      210.542      90.278    -103.614
  O      210.446      90.879    -102.298
  C      209.107      90.110    -104.088
  O      208.982      89.154    -105.131
  C      208.430      89.655    -102.806
  O      208.564      88.242    -102.607
  C      209.193      90.445    -101.724
  N      208.405      91.566    -101.216
  C      207.709      91.322    -100.032
  O      207.742      90.248     -99.435
  N      206.935      92.355     -99.571
  C      206.750      93.560    -100.195
  O      205.998      94.420     -99.756
  C      207.498      93.752    -101.448
  C      208.278      92.759    -101.898
  O      211.900      94.435    -104.267
  O      212.634      93.170    -106.373
  H      212.793      94.803    -104.410
  H      208.008      88.024    -101.830
  H      206.428      92.204     -98.716
  H      207.375      94.695    -101.969
  H      208.827      92.874    -102.830
  H      209.446      89.793    -100.882
  H      207.366      89.878    -102.828
  H      208.688      91.081    -104.388
  H      211.032      89.301    -103.512
  H      212.307      91.449    -103.980
  H      211.689      90.621    -105.430
  P      207.851      89.408    -106.244
  C      205.439      90.452    -106.116
  O      206.544      89.869    -105.441
  O      207.545      87.903    -106.697
  O      208.296      90.320    -107.338
  H      207.729      87.268    -105.983
  H      204.673      90.688    -105.408
  H      205.057      89.761    -106.838
  H      205.755      91.346    -106.611

 6  7  8  9  10  11  12  13  14  15  16  27  31  32  33  34  35 0
 6-311+G(2d,p)
 ****
 36  37 0
 6-311+G(2d,p)
 ****
 1  2  3  4  5  17  18  19  20  21  22  23  24  25 0
 3-21G
 ****
 26  28  29  30  38  39  40  41  42  43  44  45 0
 3-21G
 ****


