%nproc=1
%NoSave
%Mem=1900MB
#P OB98/GEN NMR

erre ene a

0 1
  C     -899.340    -719.827    -149.786
  O     -898.720    -718.557    -149.817
  H     -900.000    -719.906    -148.913
  H     -899.950    -719.952    -150.689
  H     -898.580    -720.617    -149.752
  P     -897.820    -718.162    -148.553
  C     -895.580    -719.235    -149.322
  O     -896.710    -719.312    -148.459
  C     -894.370    -719.875    -148.637
  O     -894.150    -719.265    -147.345
  C     -894.540    -721.366    -148.368
  O     -894.250    -722.159    -149.501
  C     -893.520    -721.570    -147.270
  O     -892.200    -721.615    -147.839
  C     -893.700    -720.296    -146.433
  N     -894.720    -722.662    -142.007
  C     -893.640    -722.693    -142.820
  N     -893.440    -722.015    -143.962
  C     -894.490    -721.238    -144.253
  C     -895.660    -721.103    -143.527
  C     -895.760    -721.863    -142.352
  N     -896.880    -721.859    -141.543
  N     -896.520    -720.226    -144.153
  C     -895.880    -719.832    -145.233
  N     -894.660    -720.441    -145.357
  O     -898.760    -718.470    -147.297
  O     -897.280    -716.770    -148.548
  H     -892.100    -720.837    -148.413
  H     -898.400    -718.059    -146.492
  H     -892.830    -723.345    -142.495
  H     -896.250    -719.121    -145.958
  H     -892.750    -719.952    -145.982
  H     -893.650    -722.511    -146.723
  H     -895.540    -721.593    -147.967
  H     -893.490    -719.685    -149.252
  H     -895.360    -718.185    -149.537
  H     -896.910    -722.551    -140.807
  H     -897.710    -721.386    -141.860
  H     -895.800    -719.756    -150.257
  P     -895.100    -723.515    -149.693
  C     -896.340    -722.495    -151.741
  O     -896.450    -723.101    -150.456
  O     -895.600    -723.840    -148.207
  O     -894.330    -724.652    -150.292
  H     -895.670    -724.801    -148.066
  H     -897.318    -722.279    -152.118
  H     -895.840    -723.164    -152.409
  H     -895.780    -721.587    -151.660

 6  7  8  9  10  11  12  13  14  15  25  28  32  33  34  35 0
 6-311+G(2d,p)
 ****
 36  39  40 0
 6-311+G(2d,p)
 ****
 1  2  3  4  5  16  17  18  19  20  21  22  23  24 0
 3-21G
 ****
 26  27  29  30  31  37  38  41  42  43  44  45  46  47 0
 3-21G
 ****
 48 0
 3-21G
 ****


