%nproc=1
%NoSave
%Mem=1900MB
#P OB98/GEN NMR

erre ene a

0 1
  C       20.718       7.146      45.897
  O       21.495       6.166      46.558
  H       20.235       7.776      46.647
  H       19.947       6.668      45.287
  H       21.356       7.772      45.266
  P       22.309       5.146      45.626
  C       24.709       5.807      46.375
  O       23.732       5.828      45.342
  C       25.487       7.120      46.373
  O       24.644       8.188      46.862
  C       26.706       7.114      47.285
  O       27.811       6.442      46.709
  C       26.935       8.605      47.476
  O       27.679       9.164      46.388
  C       25.508       9.164      47.488
  N       23.524      12.764      50.515
  C       23.798      12.747      49.191
  N       24.317      11.742      48.456
  C       24.526      10.657      49.220
  C       24.293      10.524      50.579
  C       23.763      11.646      51.238
  N       23.507      11.672      52.588
  N       24.673       9.271      51.016
  C       25.119       8.654      49.942
  N       25.047       9.451      48.832
  O       21.547       5.253      44.222
  O       22.364       3.741      46.123
  H       27.759      10.120      46.573
  H       20.940       4.496      44.123
  H       23.583      13.667      48.656
  H       25.509       7.644      49.917
  H       25.421      10.092      46.910
  H       27.490       8.799      48.393
  H       26.448       6.671      48.255
  H       25.774       7.356      45.340
  H       25.402       4.976      46.201
  H       24.206       5.657      47.336
  H       23.193      12.532      53.005
  H       23.789      10.883      53.155
  P       28.429       5.200      47.513
  C       28.094       3.402      45.653
  O       27.734       3.873      46.946
  O       27.817       5.352      48.985
  O       29.920       5.156      47.534
  H       28.474       5.066      49.647
  H       27.541       2.513      45.430
  H       29.142       3.185      45.631
  H       27.870       4.153      44.925

 6  7  8  9  10  11  12  13  14  15  25  28  32  33  34  35 0
 6-311+G(2d,p)
 ****
 36  37  40 0
 6-311+G(2d,p)
 ****
 1  2  3  4  5  16  17  18  19  20  21  22  23  24 0
 3-21G
 ****
 26  27  29  30  31  38  39 41  42  43  44  45  46  47  48 0
 3-21G
 ****


