%nproc=1
%NoSave
%Mem=1900MB
#P OB98/GEN NMR

erre ene a

0 1
  C      442.885     967.986     430.618
  O      442.091     966.842     430.868
  H      443.387     968.274     431.548
  H      442.257     968.820     430.287
  H      443.638     967.764     429.860
  P      441.184     966.330     429.649
  C      443.075     965.025     428.411
  O      442.233     966.173     428.441
  C      443.078     964.425     427.002
  O      441.728     964.176     426.549
  C      443.697     965.329     425.946
  O      445.115     965.302     425.965
  C      443.142     964.696     424.691
  O      443.854     963.472     424.401
  C      441.686     964.393     425.123
  N      440.754     965.472     424.791
  C      440.726     965.886     423.453
  O      441.460     965.367     422.614
  N      439.884     966.912     423.102
  C      439.123     967.468     423.991
  N      438.312     968.489     423.589
  C      439.107     967.056     425.405
  C      439.940     966.061     425.733
  O      440.358     967.633     429.217
  O      440.341     965.120     429.914
  H      444.802     963.703     424.352
  H      439.853     967.451     428.383
  H      438.468     967.550     426.125
  H      439.986     965.708     426.754
  H      441.324     963.469     424.663
  H      443.228     965.331     423.799
  H      443.317     966.354     426.019
  H      443.591     963.456     427.054
  H      438.391     968.793     422.627
  H      442.691     964.295     429.128
  H      437.836     969.091     424.248
  H      444.094     965.302     428.685
  P      445.888     966.687     425.683
  C      446.757     967.211     428.075
  O      445.826     967.537     427.048
  O      444.881     967.482     424.722
  O      447.248     966.537     425.081
  H      445.361     967.966     424.036
  H      446.599     967.853     428.916
  H      447.753     967.342     427.708
  H      446.618     966.193     428.372

 6  7  8  9  10  11  12  13  14  15  16  26  30  31  32  33  35 0
 6-311+G(2d,p)
 ****
 37  38 0
 6-311+G(2d,p)
 ****
 1  2  3  4  5  17  18  19  20  21  22  23  24  25 0
 3-21G
 ****
 27  28  29  34  36  39  40  41  42  43  44  45  46 0
 3-21G
 ****


