%nproc=1
%NoSave
%Mem=1900MB
#P OB98/GEN NMR

erre ene a

0 1
  C      165.849     349.502     111.011
  O      165.066     350.666     110.821
  P      164.785     351.164     109.323
  C      166.033     353.476     109.496
  O      164.806     352.774     109.362
  C      165.833     354.730     110.356
  O      165.024     355.690     109.605
  C      165.136     354.480     111.694
  O      165.704     355.389     112.650
  C      163.688     354.861     111.404
  O      162.957     355.182     112.578
  C      163.901     356.035     110.444
  N      162.720     356.328     109.619
  C      161.820     357.291     110.078
  O      161.946     357.890     111.154
  N      160.735     357.528     109.271
  C      160.432     356.864     108.118
  O      159.438     357.103     107.445
  C      161.399     355.830     107.706
  C      162.477     355.618     108.450
  O      163.231     350.804     109.164
  O      165.685     350.551     108.301
  H      162.723     350.923     109.984
  H      163.054     354.443     113.209
  H      160.091     358.245     109.568
  H      161.176     355.266     106.797
  H      163.196     354.857     108.177
  H      164.179     356.936     111.002
  H      163.186     354.020     110.902
  H      165.249     353.447     112.046
  H      166.815     355.192     110.512
  H      166.386     353.774     108.501
  H      166.784     352.809     109.935
  P      165.601     355.001     114.216
  C      163.676     356.771     114.451
  O      164.882     356.229     114.961
  O      167.133     355.178     114.652
  O      165.070     353.633     114.495
  H      167.529     356.009     114.346
  H      163.187     357.340     115.251
  H      162.999     355.993     114.107
  H      163.905     357.454     113.624
  H      165.944     349.303     112.058
  H      166.820     349.652     110.587
  H      165.375     348.671     110.532

 3  4  5  6  7  8  9  10  11  12  13  24  28  29  30  31  32 0
 6-311+G(2d,p)
 ****
 33  34 0
 6-311+G(2d,p)
 ****
 1  2  14  15  16  17  18  19  20  21  22  23  25  26  27 0
 3-21G
 ****
 35  36  37  38  39  40  41  42  43  44  45 0
 3-21G
 ****


