%nproc=1
%NoSave
%Mem=1900MB
#P OB98/GEN NMR

erre ene a

0 1
  C        9.402     110.287     -11.059
  O        9.124     108.911     -10.792
  P       10.353     108.043     -10.229
  C        9.757     107.701      -7.729
  O        9.792     107.134      -9.029
  C        8.866     106.878      -6.793
  O        7.467     107.269      -6.937
  C        8.938     105.363      -7.049
  O        8.806     104.723      -5.774
  C        7.703     105.126      -7.903
  O        7.325     103.762      -7.976
  C        6.722     106.061      -7.203
  N        1.767     104.988      -7.768
  C        2.697     104.532      -6.901
  N        4.003     104.865      -6.818
  C        4.316     105.777      -7.754
  C        3.478     106.334      -8.707
  C        2.141     105.903      -8.694
  N        1.190     106.346      -9.586
  N        4.177     107.222      -9.513
  C        5.425     107.135      -9.089
  N        5.539     106.343      -7.983
  O       11.270     109.127      -9.494
  O       11.091     107.296     -11.290
  H        8.001     103.257      -8.473
  H       12.014     109.389     -10.067
  H        2.347     103.797      -6.181
  H        6.276     107.623      -9.545
  H        6.385     105.659      -6.239
  H        7.899     105.469      -8.926
  H        9.871     105.040      -7.517
  H        9.160     107.094      -5.758
  H        9.374     108.724      -7.777
  H        0.257     105.974      -9.500
  H        1.431     107.018     -10.299
  H       10.779     107.773      -7.343
  P        9.989     103.768      -5.261
  C       11.375     105.499      -3.972
  O       10.462     104.423      -3.873
  O       11.176     104.222      -6.240
  O        9.710     102.304      -5.274
  H       11.268     105.191      -6.256
  H       11.551     105.901      -2.971
  H       10.964     106.289      -4.605
  H       12.326     105.146      -4.382
  H        8.518     110.765     -11.427
  H       10.178     110.358     -11.792
  H        9.718     110.768     -10.157

 3  4  5  6  7  8  9  10  11  12  22  25  29  30  31  32 0
 6-311+G(2d,p)
 ****
 33  36  37 0
 6-311+G(2d,p)
 ****
 1  2  13  14  15  16  17  18  19  20  21  23  24  26 0
 3-21G
 ****
 27  28  34  35  38  39  40  41  42  43  44  45  46  47  48 0
 3-21G
 ****


