%nproc=1
%NoSave
%Mem=1900MB
#P OB98/GEN NMR

erre ene a

0 1
  C      255.440     -37.676    -239.550
  O      254.967     -38.974    -239.178
  P      253.606     -39.486    -239.853
  C      252.200     -39.089    -237.698
  O      252.373     -38.814    -239.084
  C      251.080     -38.217    -237.124
  O      249.888     -38.306    -237.926
  C      250.653     -38.637    -235.727
  O      251.581     -38.178    -234.764
  C      249.277     -37.995    -235.611
  O      249.353     -36.665    -235.072
  C      248.780     -37.966    -237.075
  N      247.648     -38.848    -237.303
  C      246.395     -38.231    -237.371
  O      246.295     -37.012    -237.220
  N      245.289     -39.014    -237.583
  C      245.421     -40.300    -237.689
  N      244.288     -41.024    -237.893
  C      246.722     -40.993    -237.595
  C      247.784     -40.214    -237.400
  O      253.529     -41.020    -239.407
  O      253.578     -39.344    -241.340
  H      248.502     -36.239    -235.301
  H      253.101     -41.553    -240.100
  H      246.780     -42.067    -237.682
  H      248.780     -40.636    -237.318
  H      248.474     -36.949    -237.353
  H      248.624     -38.567    -234.944
  H      250.558     -39.729    -235.677
  H      251.423     -37.174    -237.114
  H      243.413     -40.517    -237.951
  H      253.131     -38.902    -237.160
  H      244.274     -42.030    -237.983
  H      251.973     -40.153    -237.575
  P      252.683     -39.213    -234.238
  C      251.222     -40.145    -232.343
  O      251.848     -40.416    -233.583
  O      253.254     -38.464    -232.939
  O      253.769     -39.596    -235.184
  H      254.011     -38.956    -232.575
  H      250.528     -40.957    -232.116
  H      250.662     -39.207    -232.391
  H      251.973     -40.092    -231.551
  H      256.350     -37.465    -239.028
  H      254.704     -36.942    -239.296
  H      255.620     -37.651    -240.604

 3  4  5  6  7  8  9  10  11  12  13  21  23  27  28  29  30  32 0
 6-311+G(2d,p)
 ****
 34  35 0
 6-311+G(2d,p)
 ****
 1  2  14  15  16  17  18  19  20  22  24  25  26 0
 3-21G
 ****
 31  33  36  37  38  39  40  41  42  43  44  45  46 0
 3-21G
 ****


