%nproc=1
%NoSave
%Mem=1900MB
#P OB98/GEN NMR

erre ene a

0 1
  C      826.101    -907.139    -485.139
  O      827.067    -908.165    -484.998
  P      826.591    -909.544    -484.301
  C      828.815    -910.023    -482.971
  O      827.926    -910.382    -484.026
  C      830.207    -910.564    -483.253
  O      830.165    -912.031    -483.395
  C      830.839    -910.081    -484.550
  O      831.337    -908.742    -484.424
  C      831.912    -911.143    -484.795
  O      833.081    -910.868    -483.989
  C      831.218    -912.414    -484.325
  N      830.669    -913.218    -485.408
  C      831.568    -913.612    -486.403
  O      832.768    -913.282    -486.380
  N      831.031    -914.329    -487.440
  C      829.725    -914.656    -487.597
  O      829.304    -915.281    -488.581
  C      828.812    -914.183    -486.535
  C      829.296    -913.509    -485.503
  O      825.894    -910.277    -485.530
  O      825.712    -909.319    -483.098
  H      826.259    -909.991    -486.391
  H      833.681    -911.662    -484.059
  H      831.675    -914.634    -488.144
  H      827.762    -914.428    -486.654
  H      828.654    -913.164    -484.710
  H      831.906    -913.032    -483.732
  H      832.253    -911.165    -485.845
  H      830.106    -910.109    -485.372
  H      830.863    -910.335    -482.407
  H      828.450    -910.456    -482.045
  H      828.851    -908.925    -482.874
  P      830.514    -907.577    -485.160
  C      832.277    -906.539    -486.776
  O      831.579    -906.457    -485.557
  O      829.705    -906.938    -483.941
  O      829.644    -908.082    -486.294
  H      830.240    -906.851    -483.146
  H      832.676    -905.531    -487.026
  H      831.648    -906.859    -487.588
  H      833.133    -907.224    -486.672
  H      826.549    -906.290    -485.612
  H      825.736    -906.858    -484.173
  H      825.288    -907.494    -485.738

 3  4  5  6  7  8  9  10  11  12  13  24  28  29  30  31  32 0
 6-311+G(2d,p)
 ****
 33  34 0
 6-311+G(2d,p)
 ****
 1  2  14  15  16  17  18  19  20  21  22  23  25  26  27 0
 3-21G
 ****
 35  36  37  38  39  40  41  42  43  44  45 0
 3-21G
 ****


