%nproc=1
%NoSave
%Mem=1900MB
#P OB98/GEN NMR

erre ene a

0 1
  C      146.438    -178.586     -74.212
  O      145.843    -179.409     -75.190
  H      145.844    -178.644     -73.297
  H      146.446    -177.550     -74.561
  H      147.460    -178.904     -73.987
  P      146.720    -179.872     -76.444
  C      144.752    -179.578     -78.090
  O      146.089    -179.213     -77.767
  C      144.185    -178.711     -79.212
  O      143.845    -177.407     -78.692
  C      145.190    -178.485     -80.346
  O      145.187    -179.494     -81.343
  C      144.725    -177.148     -80.916
  O      143.721    -177.332     -81.929
  C      144.134    -176.425     -79.699
  N      145.007    -171.446     -78.933
  C      144.025    -172.048     -79.699
  N      143.204    -171.210     -80.367
  N      143.886    -173.343     -79.803
  C      144.842    -174.047     -79.159
  C      145.874    -173.564     -78.386
  C      145.978    -172.130     -78.214
  O      146.817    -171.550     -77.533
  N      146.675    -174.581     -77.920
  C      146.176    -175.662     -78.483
  N      145.017    -175.400     -79.177
  O      146.338    -181.421     -76.616
  O      148.202    -179.708     -76.290
  H      143.549    -176.464     -82.343
  H      147.103    -181.908     -76.970
  H      145.047    -170.447     -78.867
  H      146.584    -176.661     -78.384
  H      143.187    -175.934     -79.950
  H      145.555    -176.618     -81.393
  H      143.318    -170.210     -80.392
  H      146.200    -178.353     -79.948
  H      142.594    -171.608     -81.087
  H      143.256    -179.160     -79.583
  H      144.166    -179.444     -77.180
  H      144.702    -180.636     -78.362
  P      146.555    -180.103     -81.899
  C      145.134    -181.539     -83.573
  O      146.277    -180.746     -83.331
  O      146.794    -181.376     -80.960
  O      147.724    -179.173     -81.887
  H      147.427    -181.166     -80.249
  H      145.138    -181.870     -84.591
  H      144.253    -180.960     -83.390
  H      145.145    -182.388     -82.922

 6  7  8  9  10  11  12  13  14  15  26  29  33  34 0
 6-311+G(2d,p)
 ****
 36  38  39  40  41 0
 6-311+G(2d,p)
 ****
 1  2  3  4  5  16  17  18  19  20  21  22  23  24  25 0
 3-21G
 ****
 27  28  30  31  32  35  37  42  43  44  45  46  47 0
 3-21G
 ****
 48  49 0
 3-21G
 ****


