%nproc=1
%NoSave
%Mem=1900MB
#P OB98/GEN NMR

erre ene a

0 1
  C       40.258    -439.558     145.701
  O       39.825    -439.408     144.354
  P       40.439    -440.413     143.261
  C       42.537    -440.366     141.727
  O       41.705    -439.652     142.638
  C       43.096    -439.426     140.663
  O       43.941    -438.430     141.269
  C       43.956    -440.110     139.610
  O       43.178    -440.718     138.593
  C       44.723    -438.920     139.051
  O       43.891    -438.193     138.128
  C       44.972    -438.080     140.307
  N       49.708    -436.231     140.839
  C       48.650    -435.797     140.123
  N       47.424    -436.352     140.024
  C       47.359    -437.492     140.737
  C       48.369    -438.074     141.485
  C       49.593    -437.388     141.535
  N       50.662    -437.813     142.291
  N       47.927    -439.240     142.071
  C       46.672    -439.356     141.694
  N       46.278    -438.318     140.895
  O       39.359    -440.365     142.079
  O       40.682    -441.803     143.746
  H       43.559    -438.840     137.475
  H       39.419    -441.176     141.539
  H       48.806    -434.881     139.563
  H       46.013    -440.163     141.982
  H       44.888    -437.006     140.117
  H       45.625    -439.215     138.507
  H       44.659    -440.816     140.066
  H       42.248    -438.911     140.190
  H       41.945    -441.147     141.243
  H       51.434    -437.176     142.418
  H       50.506    -438.561     142.959
  H       43.352    -440.837     142.287
  P       43.771    -442.058     137.932
  C       46.059    -442.668     136.856
  O       45.238    -441.663     137.421
  O       42.920    -442.205     136.585
  O       43.673    -443.263     138.803
  H       42.888    -443.138     136.302
  H       46.864    -442.188     136.293
  H       45.487    -443.304     136.173
  H       46.497    -443.280     137.650
  H       39.772    -438.829     146.315
  H       41.318    -439.419     145.753
  H       40.010    -440.539     146.048

 3  4  5  6  7  8  9  10  11  12  22  25  29  30  31  32 0
 6-311+G(2d,p)
 ****
 33  36  37 0
 6-311+G(2d,p)
 ****
 1  2  13  14  15  16  17  18  19  20  21  23  24  26 0
 3-21G
 ****
 27  28  34  35  38  39  40  41  42  43  44  45  46  47  48 0
 3-21G
 ****


