%nproc=1
%NoSave
%Mem=1900MB
#P OB98/GEN NMR

erre ene a

0 1
  C     -427.628     524.014      37.473
  O     -427.613     522.607      37.233
  P     -428.733     521.700      37.935
  C     -427.358     519.787      39.149
  O     -428.200     520.201      38.088
  C     -426.103     519.118      38.557
  O     -425.180     520.116      38.069
  C     -425.346     518.260      39.572
  O     -425.860     516.945      39.642
  C     -423.924     518.336      39.051
  O     -423.758     517.451      37.927
  C     -423.852     519.814      38.591
  N     -423.487     520.835      39.593
  C     -422.157     520.965      39.994
  O     -421.232     520.273      39.573
  N     -421.902     521.949      40.915
  C     -422.779     522.903      41.338
  O     -422.475     523.799      42.119
  C     -424.128     522.817      40.768
  C     -424.415     521.798      39.948
  O     -429.876     521.583      36.823
  O     -429.260     522.251      39.222
  H     -423.978     516.554      38.232
  H     -430.692     522.016      37.132
  H     -420.958     522.010      41.278
  H     -424.843     523.583      41.040
  H     -425.410     521.723      39.525
  H     -423.146     519.919      37.757
  H     -423.213     518.008      39.802
  H     -425.368     518.744      40.560
  H     -426.410     518.498      37.704
  H     -427.881     519.093      39.810
  H     -427.074     520.659      39.751
  P     -426.377     516.365      41.044
  C     -425.524     513.960      40.761
  O     -426.661     514.803      40.789
  O     -427.488     517.123      41.697
  O     -425.058     516.331      41.949
  H     -425.000     517.139      42.516
  H     -425.860     512.918      40.738
  H     -424.913     514.116      41.657
  H     -424.931     514.163      39.866
  H     -426.824     524.476      36.938
  H     -427.512     524.198      38.521
  H     -428.559     524.423      37.140

 3  4  5  6  7  8  9  10  11  12  13  23  28  29  30  31  32 0
 6-311+G(2d,p)
 ****
 33  34 0
 6-311+G(2d,p)
 ****
 1  2  14  15  16  17  18  19  20  21  22  24  25  26  27 0
 3-21G
 ****
 35  36  37  38  39  40  41  42  43  44  45 0
 3-21G
 ****


