%nproc=1
%NoSave
%Mem=1900MB
#P OB98/GEN NMR

erre ene a

0 1
  C     -256.990      76.914    -219.499
  O     -257.870      77.336    -218.479
  P     -259.336      77.902    -218.810
  C     -259.007      80.226    -217.760
  O     -259.660      78.967    -217.656
  C     -259.345      81.125    -216.571
  O     -260.689      81.658    -216.727
  C     -259.271      80.433    -215.201
  O     -258.828      81.423    -214.269
  C     -260.726      80.083    -214.945
  O     -260.991      79.828    -213.570
  C     -261.432      81.305    -215.541
  N     -262.840      81.041    -215.829
  C     -263.782      81.731    -215.060
  O     -263.409      82.460    -214.141
  N     -265.112      81.536    -215.313
  C     -265.476      80.654    -216.194
  N     -266.808      80.503    -216.410
  C     -264.517      79.812    -216.936
  C     -263.232      80.066    -216.720
  O     -260.380      76.862    -219.020
  O     -259.101      78.832    -220.088
  H     -260.542      80.515    -213.029
  H     -258.998      78.277    -220.903
  H     -264.869      79.048    -217.617
  H     -262.453      79.498    -217.222
  H     -261.374      82.164    -214.852
  H     -260.995      79.181    -215.503
  H     -258.618      79.564    -215.185
  H     -258.653      81.987    -216.590
  H     -267.433      81.113    -215.893
  H     -259.346      80.707    -218.679
  H     -267.194      79.908    -217.126
  H     -257.922      80.079    -217.841
  P     -257.318      81.431    -213.721
  C     -257.904      80.722    -211.334
  O     -257.390      81.757    -212.155
  O     -256.368      82.294    -214.493
  O     -256.875      79.896    -213.756
  H     -255.906      79.831    -213.680
  H     -257.649      80.930    -210.285
  H     -257.476      79.751    -211.602
  H     -258.990      80.681    -211.432
  H     -256.074      76.576    -219.062
  H     -256.790      77.732    -220.159
  H     -257.439      76.114    -220.049

 3  4  5  6  7  8  9  10  11  12  13  23  27  28  29  30  32 0
 6-311+G(2d,p)
 ****
 34  35 0
 6-311+G(2d,p)
 ****
 1  2  14  15  16  17  18  19  20  21  22  24  25  26 0
 3-21G
 ****
 31  33  36  37  38  39  40  41  42  43  44  45  46 0
 3-21G
 ****


