%nproc=1
%NoSave
%Mem=1900MB
#P OB98/GEN NMR

erre ene a

0 1
  C       36.217    -148.606      62.275
  O       35.404    -147.514      62.656
  H       36.242    -148.655      61.183
  H       35.797    -149.540      62.655
  H       37.238    -148.476      62.643
  P       35.274    -147.153      64.213
  C       37.137    -145.392      64.023
  O       35.786    -145.640      64.379
  C       37.686    -144.194      64.795
  O       39.075    -143.997      64.424
  C       36.935    -142.887      64.517
  O       36.857    -142.144      65.733
  C       37.836    -142.165      63.535
  O       37.672    -140.749      63.589
  C       39.221    -142.636      63.974
  N       41.353    -139.529      60.610
  C       40.464    -139.261      61.632
  N       40.061    -137.981      61.767
  N       40.008    -140.172      62.450
  C       40.506    -141.410      62.209
  C       41.387    -141.802      61.230
  C       41.876    -140.787      60.321
  O       42.652    -140.965      59.390
  N       41.631    -143.152      61.293
  C       40.896    -143.572      62.306
  N       40.186    -142.556      62.888
  O       35.911    -148.127      65.152
  O       33.699    -147.037      64.455
  H       38.400    -140.355      63.061
  H       33.352    -147.851      64.867
  H       41.666    -138.792      60.002
  H       40.836    -144.596      62.653
  H       39.623    -142.037      64.801
  H       37.613    -142.498      62.514
  H       40.383    -137.223      61.185
  H       35.931    -143.050      64.114
  H       39.427    -137.756      62.525
  H       37.674    -144.434      65.864
  H       37.177    -145.188      62.947
  H       37.739    -146.283      64.235
  P       35.414    -141.705      66.278
  C       34.553    -143.892      67.333
  O       35.077    -142.590      67.573
  O       34.330    -141.636      65.254
  O       35.701    -140.258      66.914
  H       34.892    -139.716      66.839
  H       34.370    -144.381      68.267
  H       35.259    -144.461      66.765
  H       33.637    -143.812      66.786

 6  7  8  9  10  11  12  13  14  15  26  29  33  34 0
 6-311+G(2d,p)
 ****
 36  38  39  40  41 0
 6-311+G(2d,p)
 ****
 1  2  3  4  5  16  17  18  19  20  21  22  23  24  25 0
 3-21G
 ****
 27  28  30  31  32  35  37  42  43  44  45  46  47 0
 3-21G
 ****
 48  49 0
 3-21G
 ****


