%nproc=1
%NoSave
%Mem=1900MB
#P OB98/GEN NMR

erre ene a

0 1
  C      -36.231     -44.926     -81.284
  O      -37.025     -43.883     -80.758
  H      -36.799     -45.858     -81.229
  H      -35.312     -45.043     -80.703
  H      -35.988     -44.727     -82.331
  P      -36.370     -42.424     -80.617
  C      -36.250     -42.468     -78.029
  O      -35.527     -42.500     -79.250
  C      -35.393     -41.855     -76.925
  O      -34.191     -42.623     -76.714
  C      -34.904     -40.438     -77.205
  O      -35.916     -39.454     -77.077
  C      -33.831     -40.312     -76.135
  O      -34.452     -40.094     -74.856
  C      -33.176     -41.714     -76.201
  N      -31.985     -41.747     -77.047
  C      -30.861     -42.397     -76.522
  O      -30.898     -42.907     -75.403
  N      -29.704     -42.423     -77.264
  C      -29.667     -41.835     -78.418
  N      -28.483     -41.850     -79.091
  C      -30.831     -41.155     -79.017
  C      -31.943     -41.143     -78.285
  O      -37.308     -41.265     -80.726
  O      -35.204     -42.404     -81.713
  H      -33.750     -39.811     -74.243
  H      -34.775     -41.515     -81.675
  H      -30.744     -40.673     -79.979
  H      -32.836     -40.648     -78.649
  H      -32.907     -42.064     -75.198
  H      -33.143     -39.481     -76.309
  H      -34.424     -40.378     -78.188
  H      -35.972     -41.903     -75.993
  H      -27.696     -42.288     -78.632
  H      -36.539     -43.493     -77.778
  H      -28.295     -41.194     -79.842
  H      -37.153     -41.861     -78.143
  P      -35.908     -38.227     -78.114
  C      -35.142     -36.538     -76.284
  O      -34.873     -37.145     -77.538
  O      -37.336     -37.551     -77.875
  O      -35.677     -38.591     -79.546
  H      -37.998     -37.892     -78.507
  H      -34.360     -35.847     -76.047
  H      -35.193     -37.292     -75.526
  H      -36.076     -36.018     -76.333

 6  7  8  9  10  11  12  13  14  15  16  26  30  31  32  33  35 0
 6-311+G(2d,p)
 ****
 37  38 0
 6-311+G(2d,p)
 ****
 1  2  3  4  5  17  18  19  20  21  22  23  24  25 0
 3-21G
 ****
 27  28  29  34  36  39  40  41  42  43  44  45  46 0
 3-21G
 ****


