%nproc=1
%NoSave
%Mem=1900MB
#P OB98/GEN NMR

erre ene a

0 1
  C     -230.322      85.207    -433.882
  O     -229.476      84.383    -433.078
  P     -227.909      84.400    -433.429
  C     -226.602      83.379    -431.437
  O     -227.207      83.151    -432.701
  C     -227.621      83.313    -430.293
  O     -227.966      81.935    -429.984
  C     -227.128      83.960    -428.996
  O     -228.264      84.538    -428.347
  C     -226.655      82.771    -428.181
  O     -226.605      83.084    -426.791
  C     -227.700      81.717    -428.582
  N     -227.265      80.346    -428.320
  C     -226.796      80.061    -427.038
  O     -226.699      80.961    -426.198
  N     -226.413      78.777    -426.739
  C     -226.444      77.869    -427.664
  N     -226.047      76.618    -427.308
  C     -226.871      78.136    -429.050
  C     -227.268      79.383    -429.300
  O     -227.362      85.669    -432.622
  O     -227.626      84.520    -434.893
  H     -226.063      82.400    -426.342
  H     -226.828      86.233    -433.212
  H     -226.862      77.352    -429.792
  H     -227.603      79.678    -430.286
  H     -228.639      81.880    -428.035
  H     -225.653      82.463    -428.507
  H     -226.361      84.722    -429.152
  H     -228.540      83.812    -430.627
  H     -225.767      76.470    -426.345
  H     -226.121      84.360    -431.427
  H     -226.027      75.834    -427.946
  H     -225.800      82.647    -431.291
  P     -228.617      86.069    -428.659
  C     -231.130      85.603    -428.393
  O     -230.016      86.327    -427.909
  O     -229.093      85.983    -430.191
  O     -227.556      87.099    -428.475
  H     -229.271      86.879    -430.529
  H     -231.975      85.775    -427.721
  H     -230.910      84.530    -428.415
  H     -231.398      85.955    -429.393
  H     -231.335      85.109    -433.551
  H     -230.250      84.901    -434.905
  H     -230.015      86.228    -433.792

 3  4  5  6  7  8  9  10  11  12  13  21  23  27  28  29  30  32 0
 6-311+G(2d,p)
 ****
 34  35 0
 6-311+G(2d,p)
 ****
 1  2  14  15  16  17  18  19  20  22  24  25  26 0
 3-21G
 ****
 31  33  36  37  38  39  40  41  42  43  44  45  46 0
 3-21G
 ****


