%nproc=1
%NoSave
%Mem=1900MB
#P OB98/GEN NMR

erre ene a

0 1
  C      154.149    -250.653    -337.885
  O      154.127    -251.510    -339.010
  H      154.234    -251.263    -336.983
  H      153.217    -250.081    -337.838
  H      155.003    -249.972    -337.937
  P      154.184    -250.805    -340.454
  C      156.746    -250.708    -341.027
  O      155.601    -250.054    -340.514
  C      157.674    -249.714    -341.722
  O      157.334    -249.666    -343.133
  C      157.575    -248.287    -341.170
  O      158.872    -247.690    -341.220
  C      156.662    -247.592    -342.168
  O      156.840    -246.176    -342.159
  C      157.056    -248.293    -343.474
  N      156.020    -248.194    -344.499
  C      156.075    -247.080    -345.347
  O      156.962    -246.233    -345.201
  N      155.110    -246.923    -346.305
  C      154.128    -247.770    -346.374
  N      153.186    -247.551    -347.330
  C      154.006    -248.941    -345.476
  C      154.978    -249.093    -344.578
  O      153.131    -249.613    -340.279
  O      153.899    -251.719    -341.601
  H      156.350    -245.795    -342.917
  H      153.221    -249.139    -339.438
  H      153.162    -249.610    -345.564
  H      154.973    -249.921    -343.884
  H      157.981    -247.860    -343.882
  H      155.613    -247.802    -341.927
  H      157.186    -248.260    -340.148
  H      158.704    -250.087    -341.653
  H      153.296    -246.728    -347.909
  H      156.453    -251.489    -341.738
  H      152.353    -248.111    -347.438
  H      157.263    -251.194    -340.192
  P      159.679    -247.443    -339.859
  C      161.620    -249.026    -340.523
  O      160.614    -248.713    -339.561
  O      158.868    -246.966    -338.702
  O      160.749    -246.325    -340.287
  H      160.817    -245.684    -339.549
  H      162.165    -249.888    -340.201
  H      162.289    -248.197    -340.622
  H      161.160    -249.227    -341.468

 6  7  8  9  10  11  12  13  14  15  16  26  30  31  32  33  35 0
 6-311+G(2d,p)
 ****
 37  38 0
 6-311+G(2d,p)
 ****
 1  2  3  4  5  17  18  19  20  21  22  23  24  25 0
 3-21G
 ****
 27  28  29  34  36  39  40  41  42  43  44  45  46 0
 3-21G
 ****


