%nproc=1
%NoSave
%Mem=1900MB
#P OB98/GEN NMR

erre ene a

0 1
  C      -80.048    -150.801    -109.146
  O      -80.516    -152.124    -109.312
  H      -79.102    -150.692    -109.681
  H      -79.880    -150.594    -108.087
  H      -80.769    -150.087    -109.554
  P      -81.957    -152.470    -108.700
  C      -81.364    -153.043    -106.230
  O      -81.887    -152.089    -107.142
  C      -82.254    -153.116    -104.989
  O      -83.553    -153.637    -105.381
  C      -81.699    -154.040    -103.899
  O      -82.000    -153.481    -102.617
  C      -82.485    -155.324    -104.097
  O      -82.553    -156.139    -102.936
  C      -83.844    -154.769    -104.535
  N      -84.650    -155.756    -105.249
  C      -85.761    -156.272    -104.592
  O      -86.156    -155.905    -103.486
  N      -86.436    -157.262    -105.260
  C      -86.104    -157.787    -106.473
  O      -86.735    -158.689    -107.011
  C      -84.915    -157.206    -107.115
  C      -84.253    -156.235    -106.483
  O      -81.977    -154.071    -108.683
  O      -83.123    -151.890    -109.425
  H      -82.345    -154.416    -109.518
  H      -83.105    -156.920    -103.147
  H      -87.247    -157.646    -104.798
  H      -84.615    -157.604    -108.075
  H      -83.363    -155.796    -106.922
  H      -84.401    -154.394    -103.667
  H      -82.034    -155.918    -104.900
  H      -80.624    -154.203    -103.986
  H      -82.415    -152.102    -104.605
  H      -80.355    -152.740    -105.933
  H      -81.314    -154.021    -106.720
  P      -80.764    -152.991    -101.716
  C      -80.490    -154.613     -99.685
  O      -80.167    -154.316    -101.032
  O      -81.517    -152.234    -100.529
  O      -79.782    -152.164    -102.477
  H      -82.352    -152.659    -100.266
  H      -80.010    -155.524     -99.396
  H      -81.550    -154.722     -99.588
  H      -80.154    -153.817     -99.054

 6  7  8  9  10  11  12  13  14  15  16  27  31  32  33  34  35 0
 6-311+G(2d,p)
 ****
 36  37 0
 6-311+G(2d,p)
 ****
 1  2  3  4  5  17  18  19  20  21  22  23  24  25 0
 3-21G
 ****
 26  28  29  30  38  39  40  41  42  43  44  45 0
 3-21G
 ****


