%nproc=1
%NoSave
%Mem=1900MB
#P OB98/GEN NMR

erre ene a

0 1
  C     -332.137    -738.450      29.236
  O     -331.027    -738.988      29.956
  P     -330.180    -740.147      29.232
  C     -327.879    -738.936      29.097
  O     -329.004    -739.437      28.397
  C     -327.890    -737.408      29.108
  O     -328.950    -736.899      29.921
  C     -326.617    -736.790      29.675
  O     -325.564    -736.772      28.725
  C     -327.089    -735.366      29.964
  O     -327.042    -734.577      28.768
  C     -328.552    -735.592      30.408
  N     -328.932    -732.619      34.500
  C     -328.746    -732.278      33.172
  N     -328.684    -730.960      32.892
  N     -328.637    -733.158      32.203
  C     -328.747    -734.442      32.628
  C     -328.932    -734.900      33.916
  C     -329.022    -733.920      34.978
  O     -329.148    -734.172      36.174
  N     -329.008    -736.269      33.944
  C     -328.903    -736.632      32.683
  N     -328.731    -735.559      31.841
  O     -331.187    -740.661      28.094
  O     -329.763    -741.251      30.143
  H     -327.672    -734.980      28.133
  H     -331.001    -741.594      27.873
  H     -329.001    -731.908      35.197
  H     -328.953    -737.658      32.323
  H     -329.223    -734.858      29.959
  H     -326.468    -734.855      30.717
  H     -328.831    -730.231      33.572
  H     -326.315    -737.279      30.607
  H     -328.586    -730.696      31.914
  H     -328.038    -737.060      28.073
  H     -326.962    -739.296      28.625
  H     -327.891    -739.338      30.120
  P     -324.388    -737.850      28.920
  C     -323.647    -738.120      26.441
  O     -324.336    -738.678      27.543
  O     -325.011    -738.882      29.970
  O     -323.090    -737.282      29.384
  H     -324.299    -739.298      30.492
  H     -322.696    -737.680      26.742
  H     -324.274    -737.357      25.963
  H     -323.441    -738.911      25.715
  H     -332.611    -737.693      29.825
  H     -332.838    -739.230      29.026
  H     -331.793    -738.023      28.317

 3  4  5  6  7  8  9  10  11  12  23  26  30  31  33  0
 6-311+G(2d,p)
 ****
 35  36  37  38 0
 6-311+G(2d,p)
 ****
 1  2  13  14  15  16  17  18  19  20  21  22  24  25  27  28  29 0
 3-21G
 ****
 32  34  39  40  41  42  43  44  45  46  47  48  49 0
 3-21G
 ****


