%nproc=1
%NoSave
%Mem=1900MB
#P OB98/GEN NMR

erre ene a

0 1
  C     -168.347     -84.730     260.348
  O     -167.133     -85.037     259.687
  H     -168.788     -85.661     260.721
  H     -169.048     -84.262     259.651
  H     -168.157     -84.063     261.192
  P     -166.360     -83.803     259.013
  C     -164.338     -83.891     260.626
  O     -165.457     -83.151     260.167
  C     -163.233     -82.949     261.103
  O     -162.668     -82.223     259.987
  C     -163.686     -81.907     262.116
  O     -163.692     -82.446     263.427
  C     -162.627     -80.831     261.928
  O     -161.413     -81.170     262.626
  C     -162.403     -80.860     260.409
  N     -162.398     -76.644     257.621
  C     -161.369     -77.263     258.305
  N     -160.167     -76.651     258.273
  N     -161.509     -78.373     258.990
  C     -162.782     -78.841     258.983
  C     -163.883     -78.325     258.339
  C     -163.697     -77.127     257.549
  O     -164.550     -76.578     256.850
  N     -164.998     -79.097     258.560
  C     -164.576     -80.060     259.359
  N     -163.237     -79.943     259.646
  O     -167.519     -82.716     258.789
  O     -165.658     -84.109     257.732
  H     -161.122     -82.053     262.352
  H     -167.358     -82.256     257.945
  H     -162.222     -75.813     257.086
  H     -165.190     -80.861     259.747
  H     -161.367     -80.632     260.143
  H     -162.955     -79.870     262.331
  H     -160.065     -75.677     258.030
  H     -164.668     -81.500     261.849
  H     -159.433     -77.063     258.841
  H     -162.431     -83.569     261.523
  H     -163.957     -84.509     259.807
  H     -164.646     -84.540     261.454
  P     -164.435     -81.616     264.581
  C     -166.876     -82.480     264.397
  O     -165.964     -81.414     264.147
  O     -163.803     -80.152     264.428
  O     -164.222     -82.150     265.960
  H     -163.168     -79.989     265.149
  H     -167.851     -82.202     264.056
  H     -166.909     -82.682     265.447
  H     -166.552     -83.356     263.875

 6  7  8  9  10  11  12  13  14  15  26  29  33  34 0
 6-311+G(2d,p)
 ****
 36  38  39  40  41 0
 6-311+G(2d,p)
 ****
 1  2  3  4  5  16  17  18  19  20  21  22  23  24  25 0
 3-21G
 ****
 27  28  30  31  32  35  37  42  43  44  45  46  47 0
 3-21G
 ****
 48  49 0
 3-21G
 ****


