%nproc=1
%NoSave
%Mem=1900MB
#P OB98/GEN NMR

erre ene a

0 1
  C      -21.048     389.464       3.399
  O      -21.600     388.661       4.430
  P      -21.489     387.064       4.372
  C      -19.921     386.608       6.358
  O      -20.035     386.687       4.942
  C      -18.899     385.549       6.760
  O      -19.342     384.260       6.273
  C      -17.509     385.799       6.186
  O      -16.527     385.386       7.141
  C      -17.423     384.871       4.983
  O      -16.061     384.524       4.685
  C      -18.302     383.704       5.447
  N      -17.861     379.786       2.157
  C      -17.074     380.196       3.176
  N      -17.240     381.261       3.992
  C      -18.386     381.899       3.709
  C      -19.290     381.596       2.701
  C      -18.993     380.482       1.900
  N      -19.803     380.056       0.869
  N      -20.337     382.497       2.701
  C      -20.075     383.319       3.693
  N      -18.913     382.993       4.341
  O      -21.810     386.456       3.052
  O      -22.472     386.549       5.522
  H      -15.654     385.308       4.255
  H      -22.935     385.739       5.233
  H      -16.189     379.592       3.357
  H      -20.684     384.164       3.979
  H      -17.736     382.986       6.052
  H      -17.845     385.370       4.103
  H      -17.344     386.848       5.906
  H      -18.860     385.494       7.853
  H      -20.901     386.337       6.770
  H      -19.576     379.183       0.430
  H      -20.728     380.467       0.789
  H      -19.640     387.589       6.757
  P      -15.209     386.306       7.236
  C      -15.817     388.033       9.088
  O      -15.745     387.739       7.711
  O      -14.400     386.259       5.981
  O      -14.486     385.677       8.519
  H      -15.129     385.238       9.115
  H      -16.239     389.032       9.212
  H      -14.816     388.019       9.528
  H      -16.458     387.308       9.602
  H      -21.224     390.496       3.618
  H      -21.509     389.214       2.466
  H      -19.995     389.287       3.335

 3  4  5  6  7  8  9  10  11  12  22  25  29  30  31  32 0
 6-311+G(2d,p)
 ****
 33  36  37 0
 6-311+G(2d,p)
 ****
 1  2  13  14  15  16  17  18  19  20  21  23  24  26 0
 3-21G
 ****
 27  28  34  35  38  39  40  41  42  43  44  45  46  47  48 0
 3-21G
 ****


