%nproc=1
%NoSave
%Mem=1900MB
#P OB98/GEN NMR

erre ene a

0 1
  C      608.890      56.953    -178.787
  O      608.560      58.294    -178.487
  H      607.975      56.418    -179.051
  H      609.345      56.464    -177.922
  H      609.574      56.912    -179.640
  P      609.720      59.264    -177.957
  C      608.689      60.018    -175.709
  O      609.664      59.215    -176.356
  C      608.780      59.864    -174.186
  O      610.151      60.114    -173.768
  C      607.881      60.841    -173.408
  O      607.506      60.198    -172.186
  C      608.843      61.984    -173.142
  O      608.343      62.859    -172.162
  C      610.117      61.200    -172.816
  N      611.314      62.026    -172.883
  C      611.853      62.431    -171.659
  O      611.311      62.104    -170.601
  N      612.972      63.227    -171.663
  C      613.466      63.633    -172.791
  N      614.566      64.429    -172.722
  C      612.893      63.274    -174.101
  C      611.830      62.470    -174.076
  O      609.734      60.637    -178.541
  O      611.070      58.472    -178.297
  H      609.032      63.505    -171.886
  H      611.506      58.880    -179.068
  H      613.331      63.656    -175.012
  H      611.338      62.153    -174.989
  H      610.057      60.755    -171.814
  H      608.991      62.579    -174.048
  H      606.991      61.137    -173.969
  H      608.553      58.825    -173.921
  H      614.919      64.658    -171.800
  H      607.706      59.690    -176.059
  H      615.024      64.822    -173.530
  H      608.826      61.071    -175.980
  P      606.106      59.441    -171.993
  C      604.860      61.508    -171.081
  O      604.912      60.505    -172.091
  O      606.046      58.572    -170.780
  O      605.925      58.559    -173.318
  H      605.420      57.754    -173.099
  H      604.023      62.151    -171.259
  H      605.762      62.083    -171.103
  H      604.756      61.044    -170.123

 6  7  8  9  10  11  12  13  14  15  16  26  30  31  32  33  35 0
 6-311+G(2d,p)
 ****
 37  38 0
 6-311+G(2d,p)
 ****
 1  2  3  4  5  17  18  19  20  21  22  23  24  25 0
 3-21G
 ****
 27  28  29  34  36  39  40  41  42  43  44  45  46 0
 3-21G
 ****


