%nproc=1
%NoSave
%Mem=1900MB
#P OB98/GEN NMR

erre ene a

0 1
  C     -176.519      19.310    -495.163
  O     -175.434      20.174    -494.882
  P     -175.576      21.162    -493.622
  C     -173.309      20.693    -492.439
  O     -174.718      20.510    -492.437
  C     -172.664      19.845    -491.338
  O     -172.914      18.444    -491.566
  C     -171.151      19.979    -491.253
  O     -170.748      21.138    -490.547
  C     -170.793      18.727    -490.473
  O     -171.023      18.943    -489.067
  C     -171.793      17.703    -491.028
  N     -168.101      14.410    -492.101
  C     -168.504      14.918    -490.881
  N     -167.781      14.539    -489.802
  N     -169.524      15.720    -490.731
  C     -170.147      16.023    -491.898
  C     -169.840      15.577    -493.166
  C     -168.702      14.696    -493.318
  O     -168.263      14.258    -494.376
  N     -170.703      16.091    -494.097
  C     -171.535      16.841    -493.397
  N     -171.208      16.868    -492.066
  O     -177.088      20.941    -493.146
  O     -175.283      22.596    -493.919
  H     -170.709      18.142    -488.606
  H     -177.369      21.675    -492.571
  H     -167.302      13.798    -492.164
  H     -172.367      17.397    -493.815
  H     -172.180      17.045    -490.245
  H     -169.740      18.444    -490.583
  H     -166.950      13.974    -489.863
  H     -170.693      19.931    -492.251
  H     -168.018      14.950    -488.905
  H     -173.130      20.123    -490.382
  H     -173.080      21.748    -492.266
  H     -172.911      20.407    -493.418
  P     -170.144      22.346    -491.419
  C     -171.851      24.041    -490.438
  O     -171.345      23.392    -491.591
  O     -169.992      21.696    -492.875
  O     -168.853      22.895    -490.906
  H     -169.284      22.149    -493.380
  H     -172.459      24.894    -490.757
  H     -171.039      24.411    -489.806
  H     -172.481      23.353    -489.868
  H     -176.288      18.715    -496.021
  H     -177.396      19.891    -495.358
  H     -176.693      18.671    -494.322

 3  4  5  6  7  8  9  10  11  12  23  26  30  31 0
 6-311+G(2d,p)
 ****
 33  35  36  37  38 0
 6-311+G(2d,p)
 ****
 1  2  13  14  15  16  17  18  19  20  21  22  24  25 0
 3-21G
 ****
 27  28  29  32  34  39  40  41  42  43  44  45  46  47  48  49 0
 3-21G
 ****


