%nproc=1
%NoSave
%Mem=1900MB
#P OB98/GEN NMR

erre ene a

0 1
  C     -534.439     413.206     111.463
  O     -534.964     413.870     112.593
  H     -534.416     413.905     110.625
  H     -535.081     412.363     111.198
  H     -533.421     412.854     111.650
  P     -534.842     413.173     114.030
  C     -532.828     414.684     114.575
  O     -533.316     413.356     114.494
  C     -531.336     414.698     114.935
  O     -530.603     413.956     113.917
  C     -530.723     416.104     115.006
  O     -529.674     416.065     115.982
  C     -530.144     416.261     113.612
  O     -529.193     417.301     113.560
  C     -529.614     414.847     113.365
  N     -529.365     414.582     111.950
  C     -528.047     414.325     111.589
  O     -527.112     414.344     112.388
  N     -527.822     414.089     110.258
  C     -528.762     414.145     109.272
  O     -528.499     413.955     108.091
  C     -530.131     414.466     109.705
  C     -530.368     414.663     111.006
  O     -535.358     411.775     114.117
  O     -535.625     414.160     115.017
  H     -529.616     418.159     113.772
  H     -536.018     413.654     115.755
  H     -526.875     413.891     109.981
  H     -530.899     414.526     108.943
  H     -531.367     414.896     111.357
  H     -528.673     414.684     113.910
  H     -530.931     416.505     112.893
  H     -531.452     416.879     115.258
  H     -531.201     414.160     115.880
  H     -533.399     415.209     115.350
  H     -532.980     415.192     113.618
  P     -529.970     416.181     117.555
  C     -528.916     413.884     118.061
  O     -530.077     414.703     118.170
  O     -531.116     417.072     117.901
  O     -528.605     416.743     118.182
  H     -528.801     417.246     118.995
  H     -529.110     412.930     118.504
  H     -528.099     414.354     118.568
  H     -528.667     413.754     117.029

 6  7  8  9  10  11  12  13  14  15  16  26  31  32  33  34  35 0
 6-311+G(2d,p)
 ****
 36  37 0
 6-311+G(2d,p)
 ****
 1  2  3  4  5  17  18  19  20  21  22  23  24  25 0
 3-21G
 ****
 27  28  29  30  38  39  40  41  42  43  44  45 0
 3-21G
 ****


