%nproc=1
%NoSave
%Mem=1900MB
#P OB98/GEN NMR

erre ene a

0 1
  C       52.456     315.969       6.846
  O       52.984     316.411       5.615
  H       51.896     316.789       7.304
  H       53.270     315.688       7.519
  H       51.781     315.120       6.707
  P       53.609     315.334       4.605
  C       56.023     316.157       5.000
  O       55.110     315.075       5.108
  C       57.375     315.657       4.487
  O       57.920     314.727       5.471
  C       57.282     314.910       3.140
  O       58.478     315.169       2.392
  C       57.259     313.466       3.597
  O       57.620     312.582       2.566
  C       58.236     313.512       4.769
  N       58.114     312.328       5.616
  C       58.983     311.277       5.353
  O       59.822     311.292       4.453
  N       58.811     310.153       6.114
  C       57.808     309.944       7.014
  O       57.654     308.889       7.612
  C       56.885     311.074       7.212
  C       57.081     312.199       6.520
  O       53.486     315.653       3.152
  O       52.883     313.960       4.992
  H       57.793     311.695       2.931
  H       52.935     313.329       4.250
  H       59.440     309.383       5.942
  H       56.067     310.938       7.908
  H       56.410     313.044       6.627
  H       59.271     313.594       4.411
  H       56.253     313.193       3.934
  H       56.405     315.190       2.552
  H       58.071     316.501       4.424
  H       56.145     316.606       5.992
  H       55.616     316.910       4.315
  P       58.616     316.455       1.439
  C       58.631     314.946      -0.640
  O       58.086     316.118      -0.043
  O       59.967     317.095       1.467
  O       57.518     317.479       1.998
  H       57.916     318.367       2.067
  H       58.214     314.816      -1.617
  H       58.395     314.095      -0.036
  H       59.694     315.046      -0.716

 6  7  8  9  10  11  12  13  14  15  16  26  31  32  33  34  35 0
 6-311+G(2d,p)
 ****
 36  37 0
 6-311+G(2d,p)
 ****
 1  2  3  4  5  17  18  19  20  21  22  23  24  25 0
 3-21G
 ****
 27  28  29  30  38  39  40  41  42  43  44  45 0
 3-21G
 ****


