%nproc=1
%NoSave
%Mem=1900MB
#P OB98/GEN NMR

erre ene a

0 1
  C      334.421    -563.169      49.063
  O      333.743    -562.081      49.653
  H      334.591    -563.932      49.828
  H      335.389    -562.839      48.676
  H      333.833    -563.612      48.255
  P      333.085    -560.974      48.703
  C      330.911    -560.611      50.045
  O      332.149    -560.056      49.624
  C      330.201    -559.674      51.029
  O      330.995    -559.571      52.239
  C      330.069    -558.256      50.461
  O      328.941    -557.567      50.990
  C      331.337    -557.578      50.958
  O      331.228    -556.155      51.010
  C      331.515    -558.233      52.324
  N      335.283    -555.791      54.740
  C      334.059    -555.310      54.325
  N      333.801    -554.007      54.590
  N      333.173    -556.035      53.686
  C      333.594    -557.296      53.425
  C      334.793    -557.875      53.763
  C      335.750    -557.078      54.501
  O      336.858    -557.448      54.872
  N      334.865    -559.172      53.318
  C      333.712    -559.376      52.707
  N      332.898    -558.273      52.767
  O      332.016    -561.802      47.845
  O      334.040    -560.229      47.820
  H      332.118    -555.803      51.200
  H      331.805    -561.334      47.016
  H      335.914    -555.203      55.251
  H      333.417    -560.298      52.225
  H      330.942    -557.701      53.089
  H      332.146    -557.815      50.264
  H      334.525    -553.378      54.898
  H      330.019    -558.240      49.376
  H      333.066    -553.567      54.033
  H      329.234    -560.097      51.321
  H      331.134    -561.567      50.519
  H      330.274    -560.815      49.181
  P      328.011    -556.732      49.985
  C      325.600    -557.815      50.161
  O      326.496    -556.775      50.486
  O      327.999    -557.623      48.656
  O      328.487    -555.339      49.721
  H      328.427    -557.146      47.922
  H      324.649    -557.620      50.611
  H      325.984    -558.744      50.527
  H      325.487    -557.869      49.098

 6  7  8  9  10  11  12  13  14  15  26  29  33  34 0
 6-311+G(2d,p)
 ****
 36  38  39  40  41 0
 6-311+G(2d,p)
 ****
 1  2  3  4  5  16  17  18  19  20  21  22  23  24  25 0
 3-21G
 ****
 27  28  30  31  32  35  37  42  43  44  45  46  47 0
 3-21G
 ****
 48  49 0
 3-21G
 ****


