%nproc=1
%NoSave
%Mem=1900MB
#P OB98/GEN NMR

erre ene a

0 1
  C       32.605      96.890    -174.329
  O       31.536      95.968    -174.585
  P       30.812      95.115    -173.431
  C       31.777      92.756    -173.832
  O       31.766      93.900    -172.990
  C       32.807      91.715    -173.371
  O       34.161      92.244    -173.530
  C       32.658      91.282    -171.898
  O       32.939      89.878    -171.854
  C       33.752      92.093    -171.215
  O       34.120      91.594    -169.944
  C       34.849      91.995    -172.285
  N       35.968      92.920    -172.120
  C       36.820      92.722    -171.026
  O       36.607      91.839    -170.195
  N       37.903      93.557    -170.877
  C       38.117      94.507    -171.736
  N       39.215      95.288    -171.538
  C       37.238      94.762    -172.891
  C       36.197      93.940    -173.021
  O       29.427      94.679    -173.789
  O       30.786      96.071    -172.145
  H       29.959      95.919    -171.648
  H       34.832      92.160    -169.593
  H       37.454      95.559    -173.587
  H       35.516      94.044    -173.860
  H       35.228      90.967    -172.324
  H       33.395      93.120    -171.087
  H       31.656      91.454    -171.490
  H       32.731      90.843    -174.034
  H       39.802      95.074    -170.735
  H       32.034      93.075    -174.848
  H       39.479      96.047    -172.147
  H       30.772      92.315    -173.854
  P       31.785      88.825    -172.226
  C       30.662      88.623    -169.878
  O       30.562      89.071    -171.217
  O       32.400      87.453    -171.662
  O       31.454      88.685    -173.677
  H       32.016      86.703    -172.155
  H       30.295      89.412    -169.214
  H       31.692      88.381    -169.597
  H       30.036      87.733    -169.752
  H       32.921      97.334    -175.250
  H       33.427      96.369    -173.884
  H       32.265      97.655    -173.662

 3  4  5  6  7  8  9  10  11  12  13  24  27  28  29  30  32 0
 6-311+G(2d,p)
 ****
 34  35 0
 6-311+G(2d,p)
 ****
 1  2  14  15  16  17  18  19  20  21  22  23  25  26 0
 3-21G
 ****
 31  33  36  37  38  39  40  41  42  43  44  45  46 0
 3-21G
 ****


