%nproc=1
%NoSave
%Mem=1900MB
#P OB98/GEN NMR

erre ene a

0 1
  C     -751.888     406.122      54.412
  O     -752.571     405.077      53.751
  H     -752.410     406.346      55.346
  H     -751.890     407.018      53.786
  H     -750.861     405.828      54.642
  P     -751.859     404.425      52.474
  C     -752.809     406.265      50.900
  O     -752.712     404.878      51.188
  C     -752.812     406.487      49.388
  O     -751.496     406.139      48.866
  C     -753.844     405.629      48.638
  O     -754.360     406.397      47.547
  C     -753.004     404.486      48.089
  O     -753.571     403.843      46.959
  C     -751.692     405.211      47.780
  N     -750.557     404.301      47.659
  C     -750.017     404.112      46.388
  O     -750.371     404.728      45.382
  N     -749.023     403.175      46.305
  C     -748.553     402.404      47.322
  O     -747.674     401.563      47.177
  C     -749.168     402.639      48.641
  C     -750.127     403.561      48.741
  O     -752.208     402.870      52.621
  O     -750.390     404.674      52.361
  H     -751.523     402.411      53.143
  H     -754.463     403.529      47.214
  H     -748.623     403.029      45.385
  H     -748.824     402.040      49.470
  H     -750.618     403.741      49.694
  H     -751.791     405.799      46.858
  H     -752.853     403.725      48.871
  H     -754.666     405.270      49.261
  H     -752.970     407.551      49.186
  H     -751.944     406.786      51.335
  H     -753.724     406.664      51.351
  P     -755.696     407.243      47.805
  C     -757.079     405.179      46.970
  O     -756.817     406.575      46.876
  O     -755.338     408.618      47.075
  O     -756.039     407.363      49.249
  H     -754.794     408.496      46.280
  H     -757.853     404.914      46.280
  H     -757.392     404.941      47.965
  H     -756.189     404.633      46.736

 6  7  8  9  10  11  12  13  14  15  16  27  31  32  33  34  35 0
 6-311+G(2d,p)
 ****
 36  37 0
 6-311+G(2d,p)
 ****
 1  2  3  4  5  17  18  19  20  21  22  23  24  25 0
 3-21G
 ****
 26  28  29  30  38  39  40  41  42  43  44  45 0
 3-21G
 ****


