%nproc=1
%NoSave
%Mem=1900MB
#P OB98/GEN NMR

erre ene a

0 1
  C      350.153      50.078     702.975
  O      349.693      51.293     703.530
  H      350.036      49.288     703.720
  H      351.210      50.165     702.719
  H      349.576      49.808     702.084
  P      349.478      52.554     702.563
  C      347.315      51.537     701.592
  O      348.621      52.027     701.311
  C      346.246      52.496     701.045
  O      346.362      52.546     699.590
  C      344.803      52.073     701.374
  O      344.024      53.274     701.488
  C      344.411      51.307     700.126
  O      343.015      51.161     700.026
  C      345.087      52.160     699.045
  N      345.225      51.442     697.780
  C      344.632      52.020     696.669
  O      343.975      53.065     696.719
  N      344.759      51.340     695.489
  C      345.367      50.129     695.333
  O      345.425      49.546     694.256
  C      345.944      49.537     696.550
  C      345.856      50.212     697.703
  O      350.712      53.311     702.199
  O      348.424      53.475     703.344
  H      342.586      52.039     699.943
  H      348.571      54.413     703.125
  H      344.340      51.754     694.672
  H      346.425      48.576     696.465
  H      346.271      49.809     698.616
  H      344.505      53.072     698.856
  H      344.845      50.298     700.141
  H      344.728      51.479     702.285
  H      346.456      53.502     701.414
  H      347.211      51.453     702.676
  H      347.191      50.548     701.141
  P      343.974      54.134     702.847
  C      345.792      55.820     702.120
  O      345.411      54.817     703.066
  O      343.466      53.382     704.033
  O      343.019      55.374     702.501
  H      342.585      55.689     703.321
  H      346.762      56.197     702.371
  H      345.082      56.620     702.143
  H      345.818      55.394     701.139

 6  7  8  9  10  11  12  13  14  15  16  26  31  32  33  34  35 0
 6-311+G(2d,p)
 ****
 36  37 0
 6-311+G(2d,p)
 ****
 1  2  3  4  5  17  18  19  20  21  22  23  24  25 0
 3-21G
 ****
 27  28  29  30  38  39  40  41  42  43  44  45 0
 3-21G
 ****


