%nproc=1
%NoSave
%Mem=1900MB
#P OB98/GEN NMR

erre ene a

0 1
  C     1249.980     426.915    1173.457
  O     1251.355     427.100    1173.812
  P     1251.760     428.466    1174.548
  C     1253.128     429.444    1172.548
  O     1253.129     429.008    1173.915
  C     1254.330     430.376    1172.295
  O     1254.221     431.583    1173.080
  C     1255.640     429.781    1172.680
  O     1256.089     428.834    1171.696
  C     1256.537     431.000    1172.809
  O     1257.192     431.318    1171.558
  C     1255.560     432.098    1173.221
  N     1255.783     432.575    1174.587
  C     1256.706     433.629    1174.712
  O     1257.302     434.076    1173.721
  N     1256.968     434.114    1175.975
  C     1256.387     433.601    1177.004
  N     1256.669     434.134    1178.222
  C     1255.415     432.474    1176.907
  C     1255.158     432.012    1175.684
  O     1252.200     427.987    1176.016
  O     1250.636     429.478    1174.607
  H     1257.615     430.485    1171.283
  H     1251.975     428.659    1176.670
  H     1254.951     432.064    1177.803
  H     1254.479     431.193    1175.511
  H     1255.630     432.949    1172.541
  H     1257.346     430.834    1173.524
  H     1255.564     429.243    1173.644
  H     1254.323     430.635    1171.218
  H     1257.343     434.894    1178.255
  H     1252.188     429.962    1172.314
  H     1256.282     433.796    1179.100
  H     1253.164     428.558    1171.916
  P     1255.729     427.288    1171.899
  C     1258.106     426.842    1171.082
  O     1256.717     426.487    1170.947
  O     1254.319     427.144    1171.094
  O     1255.584     426.812    1173.324
  H     1253.961     426.266    1171.236
  H     1258.697     426.085    1170.525
  H     1258.420     426.833    1172.105
  H     1258.282     427.814    1170.598
  H     1249.860     425.966    1172.977
  H     1249.676     427.694    1172.789
  H     1249.376     426.947    1174.340

 3  4  5  6  7  8  9  10  11  12  13  21  23  27  28  29  30  32 0
 6-311+G(2d,p)
 ****
 34  35 0
 6-311+G(2d,p)
 ****
 1  2  14  15  16  17  18  19  20  22  24  25  26 0
 3-21G
 ****
 31  33  36  37  38  39  40  41  42  43  44  45  46 0
 3-21G
 ****


