%nproc=1
%NoSave
%Mem=1900MB
#P OB98/GEN NMR

erre ene a

0 1
  C      252.777     321.064     574.579
  O      253.429     322.305     574.380
  P      254.541     322.817     575.407
  C      256.487     322.035     573.940
  O      255.850     321.906     575.205
  C      257.924     322.538     574.093
  O      258.597     322.446     572.803
  C      258.051     323.991     574.569
  O      259.231     324.064     575.378
  C      258.278     324.751     573.270
  O      258.882     326.023     573.474
  C      259.144     323.749     572.520
  N      260.908     326.721     568.749
  C      261.044     326.796     570.089
  N      260.526     325.979     571.031
  C      259.796     325.004     570.462
  C      259.540     324.820     569.114
  C      260.147     325.729     568.228
  N      260.047     325.651     566.856
  N      258.696     323.740     568.924
  C      258.451     323.286     570.140
  N      259.147     323.978     571.092
  O      254.090     322.946     576.827
  O      254.993     324.234     574.823
  H      259.128     326.387     572.605
  H      254.622     324.959     575.370
  H      261.664     327.611     570.458
  H      257.788     322.465     570.379
  H      260.186     323.768     572.866
  H      257.318     324.908     572.763
  H      257.177     324.358     575.123
  H      258.450     321.863     574.777
  H      255.919     322.752     573.343
  H      260.629     326.266     566.319
  H      259.717     324.780     566.435
  H      256.478     321.070     573.418
  P      259.422     325.285     576.402
  C      257.902     324.000     578.016
  O      258.164     325.245     577.393
  O      259.702     326.607     575.774
  O      260.632     324.797     577.339
  H      261.012     325.571     577.805
  H      257.361     323.354     577.321
  H      257.281     324.166     578.904
  H      258.831     323.509     578.322
  H      252.072     320.901     573.791
  H      252.265     321.077     575.518
  H      253.501     320.276     574.578

 3  4  5  6  7  8  9  10  11  12  22  25  29  30  31  32 0
 6-311+G(2d,p)
 ****
 33  36  37 0
 6-311+G(2d,p)
 ****
 1  2  13  14  15  16  17  18  19  20  21  23  24  26 0
 3-21G
 ****
 27  28  34  35  38  39  40  41  42  43  44  45  46  47  48 0
 3-21G
 ****


