%nproc=1
%NoSave
%Mem=1900MB
#P OB98/GEN NMR

erre ene a

0 1
  C      190.002     426.283      -9.773
  O      190.944     426.231      -8.722
  H      190.002     425.320     -10.291
  H      190.276     427.062     -10.486
  H      188.996     426.469      -9.387
  P      190.999     427.442      -7.675
  C      193.355     428.430      -8.028
  O      192.530     427.596      -7.224
  C      194.823     428.082      -7.802
  O      195.252     428.552      -6.506
  C      195.116     426.586      -7.819
  O      195.117     426.085      -9.143
  C      196.469     426.554      -7.121
  O      197.521     426.907      -8.032
  C      196.283     427.649      -6.043
  N      195.952     427.109      -4.726
  C      196.983     426.472      -4.041
  O      198.108     426.321      -4.512
  N      196.666     425.993      -2.796
  C      195.428     426.016      -2.222
  O      195.185     425.525      -1.123
  C      194.371     426.671      -3.005
  C      194.676     427.180      -4.201
  O      190.019     427.376      -6.550
  O      190.762     428.737      -8.585
  H      197.558     427.884      -8.050
  H      189.836     429.030      -8.507
  H      197.395     425.516      -2.290
  H      193.375     426.702      -2.582
  H      193.907     427.661      -4.796
  H      197.200     428.246      -5.947
  H      196.713     425.572      -6.721
  H      194.390     426.050      -7.199
  H      195.419     428.604      -8.564
  H      193.180     429.475      -7.747
  H      193.080     428.295      -9.078
  P      194.455     424.668      -9.479
  C      196.832     423.731      -9.680
  O      195.547     423.806     -10.286
  O      193.112     424.729     -10.126
  O      194.384     423.926      -8.065
  H      193.461     423.912      -7.744
  H      197.481     423.139     -10.291
  H      196.745     423.281      -8.713
  H      197.237     424.716      -9.580

 6  7  8  9  10  11  12  13  14  15  16  26  31  32  33  34  35 0
 6-311+G(2d,p)
 ****
 36  37 0
 6-311+G(2d,p)
 ****
 1  2  3  4  5  17  18  19  20  21  22  23  24  25 0
 3-21G
 ****
 27  28  29  30  38  39  40  41  42  43  44  45 0
 3-21G
 ****


