%nproc=1
%NoSave
%Mem=1900MB
#P OB98/GEN NMR

erre ene a

0 1
  C       32.946     206.649     471.581
  O       33.090     205.405     470.926
  H       31.905     206.766     471.890
  H       33.209     207.469     470.904
  H       33.583     206.679     472.470
  P       34.545     205.062     470.342
  C       35.054     204.524     467.873
  O       34.447     205.434     468.781
  C       35.824     205.286     466.794
  O       34.871     205.942     465.922
  C       36.762     206.364     467.353
  O       37.938     206.425     466.540
  C       35.958     207.642     467.173
  O       36.790     208.799     467.130
  C       35.213     207.341     465.875
  N       33.240     211.398     463.504
  C       34.389     210.706     463.318
  N       34.823     209.615     463.981
  C       33.911     209.218     464.889
  C       32.703     209.818     465.194
  C       32.376     210.970     464.458
  N       31.232     211.701     464.664
  N       32.071     209.134     466.218
  C       32.884     208.138     466.520
  N       34.018     208.157     465.754
  O       35.054     203.694     470.638
  O       35.427     206.263     470.927
  H       37.440     208.740     467.863
  H       34.983     207.125     470.807
  H       35.043     211.083     462.535
  H       32.703     207.388     467.287
  H       35.822     207.519     464.982
  H       35.260     207.761     468.006
  H       37.035     206.194     468.394
  H       36.376     204.561     466.176
  H       34.289     203.896     467.401
  H       31.074     212.512     464.092
  H       30.569     211.398     465.366
  H       35.733     203.878     468.443
  P       39.370     206.493     467.254
  C       40.635     208.093     468.834
  O       39.374     207.716     468.299
  O       40.551     206.442     466.341
  O       39.343     205.215     468.225
  H       40.213     204.771     468.193
  H       40.505     208.911     469.511
  H       41.286     208.388     468.038
  H       41.064     207.263     469.356

 6  7  8  9  10  11  12  13  14  15  25  28  32  33  34  35 0
 6-311+G(2d,p)
 ****
 36  39  40 0
 6-311+G(2d,p)
 ****
 1  2  3  4  5  16  17  18  19  20  21  22  23  24 0
 3-21G
 ****
 26  27  29  30  31  37  38  41  42  43  44  45  46  47 0
 3-21G
 ****
 48 0
 3-21G
 ****


