%nproc=1
%NoSave
%Mem=1900MB
#P OB98/GEN NMR

erre ene a

0 1
  C      376.127     653.721    -898.440
  O      375.043     653.404    -899.280
  H      377.009     653.918    -899.050
  H      376.346     652.872    -897.780
  H      375.905     654.610    -897.840
  P      373.638     653.100    -898.570
  C      372.783     651.258    -896.940
  O      373.796     651.657    -897.860
  C      373.310     650.089    -896.110
  O      374.300     650.554    -895.160
  C      372.237     649.396    -895.260
  O      371.425     648.514    -896.030
  C      373.089     648.685    -894.230
  O      373.579     647.433    -894.710
  C      374.256     649.684    -894.000
  N      376.404     650.886    -889.540
  C      376.833     650.141    -890.570
  N      376.209     649.866    -891.750
  C      375.009     650.496    -891.780
  C      374.433     651.293    -890.810
  C      375.176     651.477    -889.620
  N      374.724     652.205    -888.560
  N      373.182     651.724    -891.200
  C      373.010     651.202    -892.390
  N      374.087     650.451    -892.800
  O      372.658     652.797    -899.800
  O      373.112     654.190    -897.690
  H      374.132     647.644    -895.490
  H      372.121     653.592    -900.000
  H      377.815     649.686    -890.450
  H      372.127     651.337    -893.020
  H      375.219     649.165    -893.940
  H      372.511     648.496    -893.320
  H      371.617     650.164    -894.760
  H      373.805     649.352    -896.790
  H      371.889     650.933    -897.480
  H      372.533     652.101    -896.290
  H      375.291     652.253    -887.720
  H      373.775     652.559    -888.560
  P      370.156     647.857    -895.300
  C      369.778     646.555    -893.070
  O      370.694     647.026    -894.060
  O      369.666     646.737    -896.340
  O      369.050     648.833    -894.970
  H      368.697     646.666    -896.310
  H      370.314     646.019    -892.315
  H      369.061     645.906    -893.528
  H      369.273     647.388    -892.626

 6  7  8  9  10  11  12  13  14  15  25  28  32  33  34  35 0
 6-311+G(2d,p)
 ****
 36  37  40 0
 6-311+G(2d,p)
 ****
 1  2  3  4  5  16  17  18  19  20  21  22  23  24 0
 3-21G
 ****
 26  27  29  30  31  38  39 41  42  43  44  45  46  47  48 0
 3-21G
 ****


