%nproc=1
%NoSave
%Mem=1900MB
#P OB98/GEN NMR

erre ene a

0 1
  C      595.853     473.367     460.248
  O      595.956     473.026     461.616
  H      595.839     474.457     460.159
  H      594.932     472.963     459.822
  H      596.719     472.980     459.697
  P      595.962     471.458     461.966
  C      598.508     471.139     461.724
  O      597.403     471.204     462.623
  C      599.398     469.940     462.063
  O      600.347     469.754     460.983
  C      600.195     470.116     463.353
  O      600.262     468.864     464.042
  C      601.583     470.509     462.870
  O      602.597     470.176     463.810
  C      601.667     469.750     461.543
  N      606.561     469.890     460.096
  C      605.893     469.072     460.936
  N      604.578     469.098     461.255
  C      603.944     470.063     460.567
  C      604.490     470.974     459.687
  C      605.876     470.874     459.460
  N      606.572     471.716     458.633
  N      603.519     471.843     459.217
  C      602.400     471.448     459.795
  N      602.614     470.385     460.634
  O      595.597     470.545     460.843
  O      594.988     471.409     463.234
  H      602.543     469.211     463.999
  H      595.177     472.132     463.862
  H      606.486     468.306     461.421
  H      601.429     471.906     459.654
  H      601.994     468.714     461.679
  H      601.621     471.594     462.700
  H      599.765     470.874     464.015
  H      598.777     469.037     462.089
  H      599.098     472.058     461.783
  H      607.561     471.565     458.512
  H      606.074     472.440     458.123
  H      598.108     471.044     460.708
  P      599.635     468.770     465.512
  C      597.135     468.196     465.203
  O      598.438     467.696     465.493
  O      599.315     470.067     466.179
  O      600.773     467.977     466.322
  H      600.830     468.345     467.230
  H      596.432     467.390     465.220
  H      597.134     468.649     464.234
  H      596.861     468.924     465.937

 6  7  8  9  10  11  12  13  14  15  25  28  32  33  34  35 0
 6-311+G(2d,p)
 ****
 36  39  40 0
 6-311+G(2d,p)
 ****
 1  2  3  4  5  16  17  18  19  20  21  22  23  24 0
 3-21G
 ****
 26  27  29  30  31  37  38  41  42  43  44  45  46  47 0
 3-21G
 ****
 48 0
 3-21G
 ****


