%nproc=1
%NoSave
%Mem=1900MB
#P OB98/GEN NMR

erre ene a

0 1
  C      373.711     642.677    -897.600
  O      374.115     643.570    -898.610
  H      374.183     641.705    -897.770
  H      372.621     642.545    -897.630
  H      374.010     643.046    -896.610
  P      373.547     645.067    -898.520
  C      371.234     645.810    -897.580
  O      371.939     644.932    -898.460
  C      369.878     645.188    -897.250
  O      370.051     643.829    -896.790
  C      369.126     645.907    -896.130
  O      368.494     647.102    -896.570
  C      368.147     644.835    -895.690
  O      366.981     644.810    -896.520
  C      368.971     643.529    -895.870
  N      368.113     640.295    -892.020
  C      367.455     640.523    -893.170
  N      367.745     641.400    -894.170
  C      368.883     642.070    -893.860
  C      369.672     641.951    -892.740
  C      369.243     641.019    -891.760
  N      369.894     640.816    -890.580
  N      370.730     642.831    -892.770
  C      370.589     643.468    -893.910
  N      369.489     643.044    -894.620
  O      373.809     645.647    -900.000
  O      374.160     645.927    -897.470
  H      367.304     644.727    -897.440
  H      374.616     646.202    -899.990
  H      366.557     639.923    -893.320
  H      371.258     644.245    -894.290
  H      368.366     642.733    -896.320
  H      367.828     644.998    -894.660
  H      369.827     646.117    -895.290
  H      369.256     645.161    -898.190
  H      371.073     646.777    -898.070
  H      371.819     645.955    -896.670
  H      369.499     640.166    -889.900
  H      370.668     641.418    -890.320
  P      368.130     648.203    -895.470
  C      366.931     648.091    -893.150
  O      367.097     647.541    -894.460
  O      367.254     649.275    -896.270
  O      369.328     648.844    -894.800
  H      367.430     650.167    -895.930
  H      366.201     647.521    -892.614
  H      366.604     649.107    -893.228
  H      367.864     648.056    -892.628

 6  7  8  9  10  11  12  13  14  15  25  28  32  33  34  35 0
 6-311+G(2d,p)
 ****
 36  37  40 0
 6-311+G(2d,p)
 ****
 1  2  3  4  5  16  17  18  19  20  21  22  23  24 0
 3-21G
 ****
 26  27  29  30  31  38  39 41  42  43  44  45  46  47  48 0
 3-21G
 ****


