%nproc=1
%NoSave
%Mem=1900MB
#P OB98/GEN NMR

erre ene a

0 1
  C      276.572      19.104     -97.764
  O      275.983      19.180     -96.483
  H      275.783      19.193     -98.517
  H      277.079      18.145     -97.901
  H      277.280      19.926     -97.906
  P      276.918      18.961     -95.200
  C      276.081      21.153     -94.112
  O      277.199      20.414     -94.583
  C      276.191      21.400     -92.600
  O      276.344      20.119     -91.924
  C      277.391      22.274     -92.199
  O      277.024      22.986     -91.010
  C      278.438      21.221     -91.892
  O      279.527      21.767     -91.190
  C      277.577      20.176     -91.175
  N      278.229      18.879     -91.088
  C      278.404      18.360     -89.804
  O      278.026      18.998     -88.818
  N      279.029      17.148     -89.660
  C      279.499      16.538     -90.705
  N      280.121      15.348     -90.495
  C      279.388      17.081     -92.076
  C      278.743      18.243     -92.195
  O      278.135      18.127     -95.418
  O      275.940      18.293     -94.120
  H      280.099      21.057     -90.822
  H      276.137      17.341     -94.043
  H      279.812      16.546     -92.910
  H      278.613      18.722     -93.159
  H      277.328      20.510     -90.158
  H      278.844      20.801     -92.819
  H      277.686      22.974     -92.981
  H      275.248      21.834     -92.244
  H      280.183      15.019     -89.538
  H      275.183      20.566     -94.330
  H      280.542      14.797     -91.227
  H      276.013      22.112     -94.635
  P      276.467      24.488     -91.030
  C      274.080      23.545     -90.752
  O      274.917      24.475     -91.436
  O      277.299      25.432     -91.838
  O      276.446      24.946     -89.495
  H      276.600      25.906     -89.446
  H      273.077      23.636     -91.112
  H      274.102      23.750     -89.702
  H      274.433      22.551     -90.928

 6  7  8  9  10  11  12  13  14  15  16  26  30  31  32  33  35 0
 6-311+G(2d,p)
 ****
 37  38 0
 6-311+G(2d,p)
 ****
 1  2  3  4  5  17  18  19  20  21  22  23  24  25 0
 3-21G
 ****
 27  28  29  34  36  39  40  41  42  43  44  45  46 0
 3-21G
 ****


