%nproc=1
%NoSave
%Mem=1900MB
#P OB98/GEN NMR

erre ene a

0 1
  C     -208.415     104.718    -256.842
  O     -208.299     103.564    -257.649
  H     -207.889     104.542    -255.901
  H     -209.468     104.914    -256.625
  H     -207.970     105.581    -257.342
  P     -208.930     103.644    -259.123
  C     -206.581     103.004    -260.015
  O     -207.698     103.872    -260.131
  C     -205.356     103.606    -260.700
  O     -205.607     103.680    -262.136
  C     -204.998     105.023    -260.224
  O     -203.570     105.150    -260.248
  C     -205.568     105.904    -261.324
  O     -204.955     107.191    -261.369
  C     -205.293     105.026    -262.544
  N     -205.738     108.569    -266.088
  C     -204.798     108.414    -265.088
  N     -203.824     109.347    -265.019
  N     -204.810     107.429    -264.229
  C     -205.823     106.552    -264.436
  C     -206.818     106.594    -265.382
  C     -206.807     107.705    -266.312
  O     -207.624     107.908    -267.205
  N     -207.677     105.531    -265.245
  C     -207.199     104.850    -264.220
  N     -206.076     105.429    -263.695
  O     -209.674     105.060    -259.108
  O     -209.853     102.529    -259.485
  H     -205.010     107.582    -260.473
  H     -210.610     104.947    -258.858
  H     -205.690     109.353    -266.715
  H     -207.627     103.940    -263.817
  H     -204.240     105.056    -262.850
  H     -206.646     106.043    -261.176
  H     -203.723     110.104    -265.674
  H     -205.377     105.274    -259.230
  H     -203.101     109.226    -264.321
  H     -204.510     102.924    -260.565
  H     -206.823     102.047    -260.489
  H     -206.367     102.831    -258.955
  P     -202.741     104.544    -259.019
  C     -201.733     102.706    -260.560
  O     -202.410     103.011    -259.348
  O     -203.849     104.425    -257.867
  O     -201.583     105.381    -258.586
  H     -203.424     104.493    -256.991
  H     -201.588     101.648    -260.631
  H     -200.783     103.198    -260.571
  H     -202.319     103.042    -261.390

 6  7  8  9  10  11  12  13  14  15  26  29  33  34 0
 6-311+G(2d,p)
 ****
 36  38  39  40  41 0
 6-311+G(2d,p)
 ****
 1  2  3  4  5  16  17  18  19  20  21  22  23  24  25 0
 3-21G
 ****
 27  28  30  31  32  35  37  42  43  44  45  46  47 0
 3-21G
 ****
 48  49 0
 3-21G
 ****


