%nproc=1
%NoSave
%Mem=1900MB
#P OB98/GEN NMR

erre ene a

0 1
  C      698.501    -899.280     752.592
  O      697.979    -897.960     752.495
  H      699.187    -899.330     753.429
  H      699.044    -899.530     751.673
  H      697.695    -900.000     752.754
  P      696.820    -897.650     751.434
  C      694.985    -898.830     752.805
  O      695.433    -897.620     752.257
  C      694.382    -898.610     754.198
  O      695.365    -898.020     755.091
  C      693.215    -897.620     754.186
  O      692.030    -898.210     753.678
  C      693.167    -897.230     755.663
  O      692.436    -898.200     756.432
  C      694.678    -897.220     756.058
  N      695.213    -895.840     756.119
  C      694.534    -894.990     756.938
  O      693.540    -895.290     757.601
  N      695.006    -893.690     756.954
  C      695.996    -893.200     756.122
  O      696.215    -892.000     756.007
  C      696.728    -894.210     755.339
  C      696.297    -895.470     755.371
  O      696.815    -898.530     750.218
  O      697.050    -896.110     751.055
  H      697.498    -896.070     750.197
  H      692.604    -898.010     757.362
  H      694.485    -893.040     757.514
  H      697.540    -893.860     754.722
  H      696.798    -896.230     754.740
  H      694.810    -897.710     757.048
  H      692.676    -896.270     755.831
  H      693.497    -896.730     753.591
  H      694.059    -899.570     754.623
  H      695.846    -899.530     752.902
  H      694.257    -899.310     752.147
  P      691.084    -897.350     752.672
  C      692.310    -898.000     750.510
  O      691.086    -898.060     751.249
  O      691.339    -895.890     752.656
  O      689.606    -897.670     753.252
  H      689.141    -896.830     753.368
  H      692.188    -898.509     749.577
  H      693.090    -898.469     751.073
  H      692.567    -896.977     750.328

 6  7  8  9  10  11  12  13  14  15  16  27  31  32  33  34  35 0
 6-311+G(2d,p)
 ****
 36  37 0
 6-311+G(2d,p)
 ****
 1  2  3  4  5  17  18  19  20  21  22  23  24  25 0
 3-21G
 ****
 26  28  29  30  38  39  40  41  42  43  44  45 0
 3-21G
 ****


