%nproc=1
%NoSave
%Mem=1900MB
#P OB98/GEN NMR

erre ene a

0 1
  C      147.964      79.327     110.215
  O      149.154      79.274     110.987
  P      150.039      80.605     111.124
  C      151.309      80.179     108.859
  O      150.473      81.024     109.635
  C      152.781      80.558     109.059
  O      153.608      79.656     108.271
  C      153.132      81.993     108.630
  O      154.139      82.471     109.534
  C      153.711      81.798     107.239
  O      154.545      82.872     106.836
  C      154.451      80.466     107.424
  N      154.722      79.771     106.161
  C      155.894      80.093     105.478
  O      156.702      80.944     105.866
  N      156.100      79.420     104.300
  C      155.250      78.529     103.721
  O      155.480      77.970     102.656
  C      154.009      78.261     104.461
  C      153.806      78.877     105.632
  O      151.379      80.020     111.776
  O      149.375      81.687     111.906
  H      151.603      79.134     111.447
  H      155.311      82.902     107.436
  H      156.964      79.614     103.810
  H      153.295      77.571     104.021
  H      152.899      78.695     106.195
  H      155.391      80.626     107.963
  H      152.895      81.707     106.515
  H      152.262      82.662     108.650
  H      153.038      80.399     110.115
  H      151.049      80.287     107.806
  H      151.133      79.135     109.149
  P      154.187      84.051     109.847
  C      155.944      84.681     108.005
  O      154.628      84.794     108.495
  O      155.525      84.118     110.741
  O      152.988      84.593     110.556
  H      156.270      83.643     110.338
  H      155.952      84.957     106.943
  H      156.319      83.657     108.099
  H      156.601      85.364     108.549
  H      147.492      78.367     110.221
  H      148.204      79.600     109.208
  H      147.300      80.054     110.633

 3  4  5  6  7  8  9  10  11  12  13  24  28  29  30  31  32 0
 6-311+G(2d,p)
 ****
 33  34 0
 6-311+G(2d,p)
 ****
 1  2  14  15  16  17  18  19  20  21  22  23  25  26  27 0
 3-21G
 ****
 35  36  37  38  39  40  41  42  43  44  45 0
 3-21G
 ****


