%nproc=1
%NoSave
%Mem=1900MB
#P OB98/GEN NMR

erre ene a

0 1
  C       26.078    -245.136    -494.527
  O       26.701    -243.891    -494.762
  H       26.741    -245.944    -494.846
  H       25.890    -245.240    -493.454
  H       25.125    -245.202    -495.061
  P       26.799    -243.394    -496.284
  C       24.651    -241.941    -496.158
  O       25.296    -243.061    -496.748
  C       23.150    -241.979    -496.442
  O       22.602    -243.204    -495.873
  C       22.364    -240.797    -495.853
  O       21.350    -240.416    -496.788
  C       21.704    -241.395    -494.624
  O       20.518    -240.706    -494.245
  C       21.459    -242.828    -495.085
  N       18.067    -245.690    -492.603
  C       18.052    -245.139    -493.836
  N       19.026    -244.431    -494.441
  C       20.126    -244.379    -493.672
  C       20.293    -244.897    -492.400
  C       19.189    -245.568    -491.853
  N       19.168    -246.073    -490.573
  N       21.548    -244.584    -491.913
  C       22.116    -243.866    -492.865
  N       21.294    -243.713    -493.947
  O       27.141    -244.750    -497.066
  O       27.804    -242.326    -496.551
  H       19.889    -240.724    -494.994
  H       28.107    -244.882    -497.082
  H       17.136    -245.272    -494.402
  H       23.095    -243.413    -492.809
  H       20.561    -242.924    -495.713
  H       22.404    -241.367    -493.780
  H       22.989    -239.929    -495.610
  H       23.003    -242.038    -497.527
  H       25.068    -241.024    -496.586
  H       18.294    -246.444    -490.227
  H       19.953    -245.896    -489.965
  H       24.835    -241.944    -495.080
  P       21.753    -239.353    -497.917
  C       21.264    -241.013    -499.866
  O       22.204    -240.149    -499.231
  O       23.122    -238.734    -497.370
  O       20.723    -238.293    -498.145
  H       23.203    -237.799    -497.635
  H       21.718    -241.466    -500.723
  H       20.409    -240.447    -500.173
  H       20.959    -241.775    -499.179

 6  7  8  9  10  11  12  13  14  15  25  28  32  33  34  35 0
 6-311+G(2d,p)
 ****
 36  39  40 0
 6-311+G(2d,p)
 ****
 1  2  3  4  5  16  17  18  19  20  21  22  23  24 0
 3-21G
 ****
 26  27  29  30  31  37  38  41  42  43  44  45  46  47 0
 3-21G
 ****
 48 0
 3-21G
 ****


