%nproc=1
%NoSave
%Mem=1900MB
#P OB98/GEN NMR

erre ene a

0 1
  C      -65.154     -27.029       2.001
  O      -64.436     -26.507       3.101
  H      -64.640     -26.743       1.079
  H      -66.163     -26.611       1.985
  H      -65.201     -28.120       2.054
  P      -64.906     -26.984       4.559
  C      -67.283     -26.736       5.571
  O      -66.186     -26.093       4.940
  C      -68.342     -25.710       5.962
  O      -67.802     -24.770       6.919
  C      -68.867     -24.876       4.798
  O      -69.882     -25.560       4.074
  C      -69.436     -23.681       5.544
  O      -70.705     -24.033       6.133
  C      -68.385     -23.465       6.640
  N      -65.396     -19.703       8.255
  C      -66.383     -20.402       8.924
  N      -66.615     -20.040      10.203
  N      -67.086     -21.366       8.387
  C      -66.754     -21.611       7.097
  C      -65.794     -20.990       6.328
  C      -65.020     -19.933       6.937
  O      -64.118     -19.298       6.398
  N      -65.740     -21.522       5.067
  C      -66.678     -22.449       5.064
  N      -67.327     -22.539       6.270
  O      -63.760     -26.411       5.524
  O      -65.071     -28.456       4.730
  H      -71.349     -24.083       5.403
  H      -63.613     -27.048       6.250
  H      -64.893     -18.963       8.712
  H      -66.923     -23.079       4.221
  H      -68.824     -23.095       7.573
  H      -69.612     -22.823       4.894
  H      -66.144     -19.275      10.662
  H      -68.055     -24.544       4.141
  H      -67.310     -20.560      10.724
  H      -69.164     -26.244       6.456
  H      -66.930     -27.251       6.470
  H      -67.709     -27.473       4.882
  P      -69.823     -25.495       2.469
  C      -70.096     -23.441       0.903
  O      -70.551     -24.124       2.066
  O      -70.876     -26.616       2.025
  O      -68.474     -25.723       1.878
  H      -70.672     -26.925       1.121
  H      -70.673     -22.551       0.764
  H      -70.209     -24.076       0.049
  H      -69.064     -23.183       1.022

 6  7  8  9  10  11  12  13  14  15  26  29  33  34 0
 6-311+G(2d,p)
 ****
 36  38  39  40  41 0
 6-311+G(2d,p)
 ****
 1  2  3  4  5  16  17  18  19  20  21  22  23  24  25 0
 3-21G
 ****
 27  28  30  31  32  35  37  42  43  44  45  46  47 0
 3-21G
 ****
 48  49 0
 3-21G
 ****


