%nproc=1
%NoSave
%Mem=1900MB
#P OB98/GEN NMR

erre ene a

0 1
  C        0.174    -389.285     245.694
  O        0.612    -387.944     245.808
  H        0.942    -389.940     246.110
  H        0.014    -389.555     244.647
  H       -0.753    -389.427     246.258
  P       -0.224    -386.807     245.038
  C       -1.958    -386.407     246.911
  O       -1.726    -386.921     245.600
  C       -2.791    -385.124     246.855
  O       -1.998    -384.035     246.345
  C       -3.993    -385.210     245.925
  O       -5.013    -386.076     246.377
  C       -4.306    -383.745     245.658
  O       -5.151    -383.163     246.644
  C       -2.899    -383.100     245.723
  N       -2.431    -382.682     244.409
  C       -2.092    -381.338     244.283
  O       -2.196    -380.519     245.201
  N       -1.666    -380.943     243.041
  C       -1.596    -381.737     241.933
  O       -1.247    -381.307     240.837
  C       -1.994    -383.142     242.120
  C       -2.383    -383.547     243.333
  O       -0.131    -386.838     243.541
  O        0.303    -385.444     245.686
  H       -6.040    -383.543     246.522
  H        0.068    -384.667     245.123
  H       -1.411    -379.976     242.935
  H       -1.953    -383.795     241.261
  H       -2.681    -384.578     243.495
  H       -2.923    -382.213     246.369
  H       -4.799    -383.617     244.696
  H       -3.648    -385.629     244.970
  H       -3.102    -384.872     247.878
  H       -0.984    -386.184     247.361
  H       -2.458    -387.165     247.524
  P       -6.056    -386.789     245.401
  C       -4.671    -388.957     245.033
  O       -5.239    -387.793     244.440
  O       -7.111    -385.921     244.791
  O       -6.791    -387.809     246.407
  H       -7.725    -387.881     246.119
  H       -4.162    -389.527     244.284
  H       -5.448    -389.551     245.467
  H       -3.977    -388.667     245.794

 6  7  8  9  10  11  12  13  14  15  16  26  31  32  33  34  35 0
 6-311+G(2d,p)
 ****
 36  37 0
 6-311+G(2d,p)
 ****
 1  2  3  4  5  17  18  19  20  21  22  23  24  25 0
 3-21G
 ****
 27  28  29  30  38  39  40  41  42  43  44  45 0
 3-21G
 ****


