%nproc=1
%NoSave
%Mem=1900MB
#P OB98/GEN NMR

erre ene a

0 1
  C     -470.138     249.976     298.845
  O     -469.184     248.920     298.682
  P     -469.292     247.963     297.402
  C     -466.746     247.634     297.148
  O     -468.002     247.006     297.356
  C     -465.596     246.619     297.237
  O     -465.123     246.532     298.615
  C     -466.007     245.203     296.797
  O     -465.117     244.639     295.835
  C     -466.140     244.443     298.107
  O     -465.997     243.043     297.947
  C     -465.125     245.148     299.012
  N     -465.438     244.978     300.433
  C     -464.447     244.425     301.231
  O     -463.370     244.021     300.791
  N     -464.747     244.295     302.562
  C     -465.947     244.581     303.141
  O     -466.188     244.395     304.326
  C     -466.990     245.098     302.231
  C     -466.685     245.270     300.940
  O     -469.626     248.633     296.112
  O     -470.459     246.936     297.822
  H     -465.185     242.872     297.414
  H     -470.996     246.755     297.028
  H     -464.030     243.913     303.158
  H     -467.962     245.314     302.651
  H     -467.434     245.638     300.248
  H     -464.117     244.746     298.855
  H     -467.147     244.620     298.504
  H     -466.977     245.216     296.284
  H     -464.779     246.992     296.616
  H     -466.592     248.404     297.910
  H     -466.751     248.152     296.184
  P     -465.524     243.525     294.765
  C     -464.301     244.713     292.811
  O     -464.444     243.537     293.588
  O     -466.948     243.547     294.312
  O     -465.215     242.157     295.532
  H     -465.916     241.511     295.340
  H     -463.830     244.460     291.861
  H     -463.655     245.426     293.347
  H     -465.273     245.185     292.612
  H     -469.924     250.515     299.744
  H     -471.123     249.561     298.904
  H     -470.080     250.641     298.009

 3  4  5  6  7  8  9  10  11  12  13  23  28  29  30  31  32 0
 6-311+G(2d,p)
 ****
 33  34 0
 6-311+G(2d,p)
 ****
 1  2  14  15  16  17  18  19  20  21  22  24  25  26  27 0
 3-21G
 ****
 35  36  37  38  39  40  41  42  43  44  45 0
 3-21G
 ****


