%nproc=1
%NoSave
%Mem=1900MB
#P OB98/GEN NMR

erre ene a

0 1
  C     -283.100    -191.649    -258.496
  O     -283.512    -190.951    -257.338
  H     -282.923    -192.692    -258.231
  H     -282.167    -191.218    -258.876
  H     -283.873    -191.601    -259.269
  P     -283.997    -189.431    -257.547
  C     -286.247    -189.945    -256.294
  O     -285.597    -189.469    -257.459
  C     -287.696    -189.460    -256.245
  O     -287.701    -188.032    -255.999
  C     -288.475    -189.715    -257.541
  O     -289.829    -190.019    -257.203
  C     -288.423    -188.371    -258.247
  O     -289.484    -188.218    -259.187
  C     -288.456    -187.405    -257.056
  N     -287.925    -186.087    -257.389
  C     -288.731    -185.262    -258.185
  O     -289.828    -185.664    -258.581
  N     -288.266    -184.027    -258.548
  C     -287.067    -183.666    -258.207
  N     -286.649    -182.436    -258.619
  C     -286.164    -184.515    -257.401
  C     -286.655    -185.695    -257.025
  O     -283.708    -189.205    -259.105
  O     -283.333    -188.440    -256.646
  H     -289.457    -187.306    -259.545
  H     -283.991    -189.947    -259.660
  H     -285.169    -184.172    -257.153
  H     -286.067    -186.380    -256.430
  H     -289.489    -187.275    -256.694
  H     -287.475    -188.269    -258.790
  H     -288.046    -190.526    -258.135
  H     -288.195    -189.934    -255.390
  H     -287.292    -181.893    -259.186
  H     -285.720    -189.603    -255.397
  H     -285.723    -182.075    -258.458
  H     -286.211    -191.039    -256.308
  P     -290.492    -191.373    -257.743
  C     -290.682    -192.487    -255.413
  O     -290.151    -192.569    -256.732
  O     -290.269    -191.674    -259.186
  O     -292.057    -191.131    -257.464
  H     -292.550    -191.477    -258.233
  H     -290.377    -193.345    -254.852
  H     -291.750    -192.453    -255.460
  H     -290.317    -191.601    -254.936

 6  7  8  9  10  11  12  13  14  15  16  26  30  31  32  33  35 0
 6-311+G(2d,p)
 ****
 37  38 0
 6-311+G(2d,p)
 ****
 1  2  3  4  5  17  18  19  20  21  22  23  24  25 0
 3-21G
 ****
 27  28  29  34  36  39  40  41  42  43  44  45  46 0
 3-21G
 ****


