%nproc=1
%NoSave
%Mem=1900MB
#P OB98/GEN NMR

erre ene a

0 1
  C      156.492     539.910     516.095
  O      155.771     539.931     514.869
  P      154.330     540.649     514.763
  C      155.363     541.985     512.802
  O      154.623     542.039     514.016
  C      155.269     543.325     512.075
  O      155.885     544.365     512.876
  C      155.979     543.369     510.728
  O      155.220     542.699     509.731
  C      156.136     544.876     510.536
  O      154.904     545.444     510.059
  C      156.421     545.358     511.976
  N      157.843     545.586     512.223
  C      158.325     546.863     511.934
  O      157.579     547.748     511.497
  N      159.652     547.141     512.175
  C      160.436     546.208     512.639
  N      161.724     546.551     512.923
  C      159.975     544.830     512.907
  C      158.680     544.597     512.685
  O      153.603     540.781     516.057
  O      153.550     539.811     513.654
  H      155.059     546.403     509.964
  H      153.046     539.038     514.017
  H      160.661     544.088     513.291
  H      158.256     543.617     512.872
  H      155.870     546.290     512.179
  H      156.928     545.140     509.820
  H      156.974     542.902     510.799
  H      154.198     543.579     511.952
  H      161.939     547.540     512.900
  H      154.943     541.199     512.173
  H      162.286     545.988     513.548
  H      156.413     541.737     513.039
  P      155.778     541.279     509.218
  C      153.593     540.090     509.959
  O      155.001     540.168     510.073
  O      157.277     541.244     509.780
  O      155.719     541.099     507.729
  H      157.909     541.471     509.069
  H      153.251     539.154     510.406
  H      153.285     540.114     508.905
  H      153.132     540.928     510.495
  H      157.417     539.390     515.956
  H      155.911     539.411     516.842
  H      156.691     540.913     516.409

 3  4  5  6  7  8  9  10  11  12  13  23  27  28  29  30  32 0
 6-311+G(2d,p)
 ****
 34  35 0
 6-311+G(2d,p)
 ****
 1  2  14  15  16  17  18  19  20  21  22  24  25  26 0
 3-21G
 ****
 31  33  36  37  38  39  40  41  42  43  44  45  46 0
 3-21G
 ****


