%nproc=1
%NoSave
%Mem=1900MB
#P OB98/GEN NMR

erre ene a

0 1
  C       85.479      27.821     -16.437
  O       84.287      27.386     -15.814
  H       86.145      26.971     -16.612
  H       85.228      28.275     -17.398
  H       85.983      28.567     -15.814
  P       84.439      26.711     -14.366
  C       85.225      24.385     -13.525
  O       85.182      25.308     -14.603
  C       86.156      23.225     -13.864
  O       87.477      23.718     -14.165
  C       86.343      22.208     -12.742
  O       85.257      21.298     -12.668
  C       87.620      21.518     -13.196
  O       87.314      20.561     -14.228
  C       88.425      22.687     -13.784
  N       92.959      22.009     -11.511
  C       92.309      21.297     -12.456
  N       91.112      21.552     -13.027
  C       90.589      22.688     -12.539
  C       91.141      23.533     -11.591
  C       92.385      23.153     -11.059
  N       93.010      23.856     -10.041
  N       90.299      24.596     -11.332
  C       89.249      24.386     -12.099
  N       89.381      23.250     -12.850
  O       82.933      26.291     -14.011
  O       85.031      27.589     -13.315
  H       86.875      21.055     -14.946
  H       82.534      26.976     -13.445
  H       92.814      20.399     -12.798
  H       88.375      25.021     -12.138
  H       88.971      22.400     -14.689
  H       88.125      20.976     -12.392
  H       86.525      22.701     -11.780
  H       85.771      22.737     -14.769
  H       84.218      23.998     -13.338
  H       93.598      23.274      -9.449
  H       92.416      24.530      -9.573
  H       85.579      24.907     -12.631
  P       84.894      20.686     -11.231
  C       85.838      18.807      -9.724
  O       85.935      19.494     -10.965
  O       83.510      19.929     -11.507
  O       84.756      21.681     -10.131
  H       82.824      20.263     -10.895
  H       86.586      18.043      -9.680
  H       84.869      18.362      -9.637
  H       85.986      19.498      -8.921

 6  7  8  9  10  11  12  13  14  15  25  28  32  33  34  35 0
 6-311+G(2d,p)
 ****
 36  39  40 0
 6-311+G(2d,p)
 ****
 1  2  3  4  5  16  17  18  19  20  21  22  23  24 0
 3-21G
 ****
 26  27  29  30  31  37  38  41  42  43  44  45  46  47  48 0
 3-21G
 ****


