%nproc=1
%NoSave
%Mem=1900MB
#P OB98/GEN NMR

erre ene a

0 1
  C     -394.446     167.236     374.030
  O     -395.189     168.320     373.501
  P     -395.843     168.233     372.041
  C     -393.758     169.163     370.860
  O     -394.630     168.047     371.008
  C     -393.004     169.086     369.531
  O     -392.085     170.199     369.449
  C     -392.189     167.805     369.373
  O     -392.225     167.399     368.004
  C     -390.765     168.225     369.708
  O     -389.806     167.375     369.063
  C     -390.761     169.682     369.231
  N     -385.863     171.183     369.629
  C     -386.482     170.361     368.749
  N     -387.779     169.988     368.718
  C     -388.470     170.600     369.696
  C     -387.976     171.459     370.665
  C     -386.601     171.748     370.612
  N     -385.971     172.593     371.503
  N     -388.985     171.864     371.524
  C     -390.065     171.271     371.068
  N     -389.810     170.504     369.959
  O     -396.784     169.334     371.701
  O     -396.561     166.804     372.012
  H     -389.867     167.549     368.098
  H     -397.407     166.861     371.524
  H     -385.852     169.946     367.970
  H     -391.052     171.354     371.503
  H     -390.533     169.755     368.161
  H     -390.608     168.156     370.792
  H     -392.539     166.991     370.016
  H     -393.725     169.189     368.712
  H     -393.036     169.151     371.680
  H     -385.013     172.836     371.310
  H     -386.550     173.153     372.119
  H     -394.338     170.090     370.919
  P     -392.154     165.813     367.734
  C     -390.142     166.397     366.184
  O     -390.667     165.560     367.190
  O     -393.283     165.340     366.880
  O     -392.158     165.246     369.233
  H     -391.814     165.913     369.868
  H     -389.139     166.044     365.922
  H     -390.065     167.423     366.551
  H     -390.770     166.368     365.294
  H     -394.095     167.488     375.009
  H     -393.611     167.032     373.393
  H     -395.071     166.369     374.087

 3  4  5  6  7  8  9  10  11  12  22  25  29  30  31  32 0
 6-311+G(2d,p)
 ****
 33  36  37 0
 6-311+G(2d,p)
 ****
 1  2  13  14  15  16  17  18  19  20  21  23  24  26 0
 3-21G
 ****
 27  28  34  35  38  39  40  41  42  43  44  45  46  47  48 0
 3-21G
 ****


