%nproc=1
%NoSave
%Mem=1900MB
#P OB98/GEN NMR

erre ene a

0 1
  C      -40.527     394.691    -487.104
  O      -39.565     394.607    -488.140
  H      -41.444     395.126    -487.511
  H      -40.171     395.329    -486.292
  H      -40.755     393.693    -486.716
  P      -38.080     394.140    -487.760
  C      -36.779     394.514    -485.555
  O      -37.631     395.083    -486.545
  C      -36.350     395.591    -484.558
  O      -37.509     396.126    -483.878
  C      -35.442     395.055    -483.455
  O      -34.125     394.858    -483.946
  C      -35.596     396.139    -482.406
  O      -34.781     397.278    -482.708
  C      -37.097     396.483    -482.540
  N      -37.923     395.797    -481.542
  C      -37.804     396.259    -480.228
  O      -37.047     397.194    -479.957
  N      -38.538     395.634    -479.245
  C      -39.324     394.646    -479.555
  N      -40.018     394.071    -478.536
  C      -39.487     394.140    -480.930
  C      -38.760     394.752    -481.866
  O      -37.089     394.066    -488.879
  O      -38.301     392.715    -487.057
  H      -35.004     397.954    -482.039
  H      -38.274     392.003    -487.718
  H      -40.161     393.317    -481.143
  H      -38.823     394.445    -482.900
  H      -37.261     397.558    -482.431
  H      -35.314     395.775    -481.420
  H      -35.847     394.120    -483.048
  H      -35.868     396.404    -485.111
  H      -39.870     394.448    -477.606
  H      -35.906     394.116    -486.078
  H      -40.726     393.362    -478.666
  H      -37.284     393.692    -485.033
  P      -33.033     394.096    -483.051
  C      -32.401     394.391    -480.565
  O      -32.802     395.038    -481.765
  O      -31.797     393.681    -483.771
  O      -33.855     392.864    -482.437
  H      -34.020     392.165    -483.115
  H      -32.281     395.119    -479.790
  H      -31.472     393.885    -480.726
  H      -33.148     393.682    -480.276

 6  7  8  9  10  11  12  13  14  15  16  26  30  31  32  33  35 0
 6-311+G(2d,p)
 ****
 37  38 0
 6-311+G(2d,p)
 ****
 1  2  3  4  5  17  18  19  20  21  22  23  24  25 0
 3-21G
 ****
 27  28  29  34  36  39  40  41  42  43  44  45  46 0
 3-21G
 ****


