%nproc=1
%NoSave
%Mem=1900MB
#P OB98/GEN NMR

erre ene a

0 1
  C      318.830     235.448    -169.373
  O      319.777     236.179    -170.121
  H      317.829     235.690    -169.748
  H      318.876     235.724    -168.319
  H      318.996     234.373    -169.487
  P      321.316     236.164    -169.658
  C      322.160     234.966    -171.771
  O      322.160     236.189    -171.035
  C      322.913     235.114    -173.096
  O      322.077     235.809    -174.051
  C      324.232     235.893    -172.984
  O      325.262     235.185    -173.684
  C      323.931     237.213    -173.672
  O      325.109     237.844    -174.167
  C      322.920     236.771    -174.736
  N      322.137     237.874    -175.278
  C      322.620     238.447    -176.466
  O      323.656     238.028    -176.981
  N      321.926     239.488    -177.024
  C      320.873     239.961    -176.429
  N      320.229     241.007    -177.029
  C      320.357     239.420    -175.151
  C      321.030     238.386    -174.640
  O      321.677     235.058    -168.722
  O      321.572     237.623    -169.056
  H      325.625     237.175    -174.680
  H      322.369     237.604    -168.474
  H      319.484     239.857    -174.682
  H      320.717     237.915    -173.709
  H      323.420     236.257    -175.560
  H      323.450     237.898    -172.964
  H      324.553     236.039    -171.958
  H      323.078     234.115    -173.509
  H      320.624     241.343    -177.903
  H      321.121     234.668    -171.949
  H      319.407     241.453    -176.651
  H      322.656     234.204    -171.161
  P      326.163     234.191    -172.796
  C      326.149     232.296    -174.571
  O      326.936     233.198    -173.800
  O      325.073     233.249    -172.091
  O      327.028     234.879    -171.800
  H      324.916     233.541    -171.176
  H      326.790     231.702    -175.189
  H      325.473     232.850    -175.188
  H      325.593     231.658    -173.916

 6  7  8  9  10  11  12  13  14  15  16  26  30  31  32  33  35 0
 6-311+G(2d,p)
 ****
 37  38 0
 6-311+G(2d,p)
 ****
 1  2  3  4  5  17  18  19  20  21  22  23  24  25 0
 3-21G
 ****
 27  28  29  34  36  39  40  41  42  43  44  45  46 0
 3-21G
 ****


