%nproc=1
%NoSave
%Mem=1900MB
#P OB98/GEN NMR

erre ene a

0 1
  C      338.745      42.623     819.729
  O      340.005      42.571     819.055
  P      340.655      41.135     818.814
  C      342.311      41.000     820.807
  O      341.078      40.573     820.260
  C      343.162      39.808     821.218
  O      342.490      39.020     822.244
  C      343.439      38.820     820.089
  O      344.511      39.234     819.256
  C      343.838      37.568     820.876
  O      345.205      37.674     821.310
  C      342.887      37.643     822.084
  N      340.444      33.521     823.781
  C      341.539      34.211     824.309
  N      342.089      33.666     825.424
  N      342.041      35.304     823.812
  C      341.385      35.719     822.688
  C      340.299      35.149     822.066
  C      339.766      33.927     822.635
  O      338.829      33.254     822.172
  N      339.911      35.865     820.959
  C      340.760      36.873     820.905
  N      341.706      36.798     821.925
  O      342.059      41.463     818.115
  O      339.827      40.199     817.975
  H      345.382      36.912     821.900
  H      342.420      40.662     817.679
  H      340.102      32.689     824.198
  H      340.749      37.660     820.174
  H      343.385      37.331     823.009
  H      343.757      36.652     820.302
  H      341.787      32.788     825.834
  H      342.531      38.602     819.506
  H      342.923      34.093     825.809
  H      344.105      40.173     821.651
  H      342.117      41.636     821.680
  H      342.847      41.611     820.069
  P      344.444      38.782     817.709
  C      346.058      36.791     818.101
  O      344.779      37.226     817.708
  O      345.763      39.462     817.084
  O      343.190      39.214     817.010
  H      345.630      39.625     816.141
  H      346.032      35.720     818.300
  H      346.387      37.301     819.015
  H      346.782      36.996     817.299
  H      338.431      43.642     819.821
  H      338.843      42.191     820.703
  H      338.017      42.075     819.168

 3  4  5  6  7  8  9  10  11  12  23  26  30  31 0
 6-311+G(2d,p)
 ****
 33  35  36  37  38 0
 6-311+G(2d,p)
 ****
 1  2  13  14  15  16  17  18  19  20  21  22  24  25 0
 3-21G
 ****
 27  28  29  32  34  39  40  41  42  43  44  45  46  47  48  49 0
 3-21G
 ****


