%nproc=1
%NoSave
%Mem=1900MB
#P OB98/GEN NMR

erre ene a

0 1
  C     -182.286      10.224     -98.223
  O     -182.196       9.045     -98.995
  H     -181.842      10.033     -97.243
  H     -183.329      10.511     -98.085
  H     -181.735      11.038     -98.704
  P     -182.836       9.035    -100.465
  C     -184.880       7.936    -101.593
  O     -184.211       8.212    -100.367
  C     -185.978       6.889    -101.369
  O     -185.339       5.655    -100.964
  C     -186.969       7.304    -100.269
  O     -188.330       7.244    -100.697
  C     -186.555       6.438     -99.083
  O     -187.589       6.181     -98.160
  C     -185.962       5.194     -99.750
  N     -185.000       4.478     -98.913
  C     -185.472       3.391     -98.181
  O     -186.627       2.982     -98.193
  N     -184.538       2.754     -97.402
  C     -183.225       3.098     -97.276
  O     -182.437       2.486     -96.564
  C     -182.794       4.270     -98.052
  C     -183.684       4.898     -98.820
  O     -181.924       8.597    -101.563
  O     -183.333      10.542    -100.683
  H     -188.266       5.644     -98.627
  H     -182.723      11.002    -101.293
  H     -184.862       1.958     -96.879
  H     -181.760       4.578     -97.965
  H     -183.402       5.768     -99.407
  H     -186.752       4.491    -100.017
  H     -185.758       6.965     -98.538
  H     -186.837       8.359    -100.006
  H     -186.487       6.701    -102.323
  H     -184.137       7.559    -102.304
  H     -185.321       8.858    -101.990
  P     -189.194       8.496    -101.179
  C     -191.102       9.991    -100.153
  O     -190.240       8.866    -100.027
  O     -189.727       8.426    -102.570
  O     -188.150       9.725    -101.120
  H     -188.414      10.341    -101.833
  H     -191.720      10.066     -99.283
  H     -191.718       9.873    -101.020
  H     -190.515      10.881    -100.251

 6  7  8  9  10  11  12  13  14  15  16  26  31  32  33  34  35 0
 6-311+G(2d,p)
 ****
 36  37 0
 6-311+G(2d,p)
 ****
 1  2  3  4  5  17  18  19  20  21  22  23  24  25 0
 3-21G
 ****
 27  28  29  30  38  39  40  41  42  43  44  45 0
 3-21G
 ****


