%nproc=1
%NoSave
%Mem=1900MB
#P OB98/GEN NMR

erre ene a

0 1
  C      199.588    -377.462     399.087
  O      198.502    -376.943     399.828
  H      199.200    -378.145     398.330
  H      200.255    -378.018     399.753
  H      200.139    -376.658     398.595
  P      198.821    -375.791     400.902
  C      197.321    -374.159     402.260
  O      197.423    -375.415     401.603
  C      195.942    -374.008     402.905
  O      194.938    -373.980     401.857
  C      195.587    -375.146     403.869
  O      194.876    -374.591     404.980
  C      194.653    -376.028     403.056
  O      193.769    -376.793     403.873
  C      193.962    -374.992     402.154
  N      193.437    -375.613     400.939
  C      192.235    -376.329     401.067
  O      191.676    -376.409     402.165
  N      191.724    -376.962     399.966
  C      192.397    -376.976     398.856
  N      191.857    -377.649     397.811
  C      193.704    -376.297     398.695
  C      194.152    -375.638     399.765
  O      199.128    -374.510     399.994
  O      199.929    -376.093     401.855
  H      193.064    -376.198     404.205
  H      199.782    -373.923     400.418
  H      194.239    -376.354     397.761
  H      195.104    -375.115     399.742
  H      193.131    -374.510     402.695
  H      195.242    -376.722     402.451
  H      196.459    -375.692     404.231
  H      195.904    -373.034     403.414
  H      190.970    -378.119     397.960
  H      197.459    -373.363     401.523
  H      192.314    -377.763     396.911
  H      198.110    -374.084     403.021
  P      195.234    -375.171     406.427
  C      195.174    -374.323     408.887
  O      195.029    -374.002     407.511
  O      196.822    -375.361     406.369
  O      194.531    -376.457     406.752
  H      197.040    -376.312     406.322
  H      195.008    -373.446     409.477
  H      196.163    -374.691     409.065
  H      194.460    -375.074     409.155

 6  7  8  9  10  11  12  13  14  15  16  26  30  31  32  33  35 0
 6-311+G(2d,p)
 ****
 37  38 0
 6-311+G(2d,p)
 ****
 1  2  3  4  5  17  18  19  20  21  22  23  24  25 0
 3-21G
 ****
 27  28  29  34  36  39  40  41  42  43  44  45  46 0
 3-21G
 ****


