%nproc=1
%NoSave
%Mem=1900MB
#P OB98/GEN NMR

erre ene a

0 1
  C       37.129     493.902    -768.585
  O       36.193     493.161    -769.340
  H       37.812     494.410    -769.273
  H       37.719     493.225    -767.953
  H       36.626     494.649    -767.964
  P       35.042     492.399    -768.524
  C       36.451     490.218    -768.338
  O       35.782     491.268    -767.645
  C       37.226     489.337    -767.360
  O       36.270     488.561    -766.569
  C       38.188     488.336    -768.036
  O       39.341     488.192    -767.195
  C       37.395     487.030    -767.994
  O       38.241     485.886    -768.111
  C       36.706     487.180    -766.642
  N       35.481     482.382    -765.747
  C       36.723     483.002    -765.769
  N       37.795     482.220    -765.504
  N       36.885     484.273    -766.017
  C       35.712     484.933    -766.226
  C       34.440     484.432    -766.242
  C       34.268     483.011    -765.993
  O       33.199     482.400    -765.984
  N       33.519     485.425    -766.517
  C       34.243     486.508    -766.675
  N       35.580     486.268    -766.500
  O       34.294     491.563    -769.662
  O       34.102     493.282    -767.769
  H       37.670     485.089    -768.101
  H       33.530     492.064    -770.010
  H       35.416     481.390    -765.568
  H       33.852     487.493    -766.904
  H       37.375     486.985    -765.799
  H       36.667     487.005    -768.815
  H       37.748     481.250    -765.258
  H       38.493     488.622    -769.050
  H       38.706     482.679    -765.471
  H       37.767     489.983    -766.651
  H       37.151     490.662    -769.058
  H       35.699     489.617    -768.877
  P       40.611     489.126    -767.495
  C       42.243     487.563    -768.795
  O       41.295     488.607    -768.859
  O       41.657     488.658    -766.371
  O       40.323     490.588    -767.416
  H       42.259     489.405    -766.165
  H       42.597     487.341    -769.780
  H       41.786     486.691    -768.376
  H       43.065     487.865    -768.181

 6  7  8  9  10  11  12  13  14  15  26  29  33  34 0
 6-311+G(2d,p)
 ****
 36  38  39  40  41 0
 6-311+G(2d,p)
 ****
 1  2  3  4  5  16  17  18  19  20  21  22  23  24  25 0
 3-21G
 ****
 27  28  30  31  32  35  37  42  43  44  45  46  47 0
 3-21G
 ****
 48  49 0
 3-21G
 ****


