%nproc=1
%NoSave
%Mem=1900MB
#P OB98/GEN NMR

erre ene a

0 1
  C     -139.833     -97.411     -23.551
  O     -138.920     -98.465     -23.792
  H     -139.356     -96.464     -23.817
  H     -140.099     -97.387     -22.491
  H     -140.733     -97.537     -24.159
  P     -139.505     -99.951     -23.687
  C     -139.915     -99.892     -26.277
  O     -140.424    -100.196     -24.985
  C     -140.550    -100.808     -27.319
  O     -140.038    -100.521     -28.635
  C     -140.239    -102.283     -27.126
  O     -140.928    -102.846     -26.031
  C     -140.679    -102.842     -28.472
  O     -142.087    -103.105     -28.502
  C     -140.316    -101.690     -29.441
  N     -139.206    -102.044     -30.305
  C     -139.398    -101.773     -31.667
  O     -140.445    -101.251     -32.051
  N     -138.418    -102.135     -32.552
  C     -137.353    -102.739     -32.125
  N     -136.434    -103.101     -33.060
  C     -137.112    -103.044     -30.700
  C     -138.072    -102.673     -29.852
  O     -140.573     -99.819     -22.504
  O     -138.480    -101.013     -23.470
  H     -142.255    -103.780     -27.813
  H     -141.176     -99.065     -22.604
  H     -136.202    -103.537     -30.392
  H     -137.978    -102.858     -28.788
  H     -141.176    -101.435     -30.074
  H     -140.175    -103.784     -28.701
  H     -139.156    -102.431     -27.033
  H     -141.633    -100.626     -27.318
  H     -136.664    -102.922     -34.030
  H     -138.825     -99.994     -26.295
  H     -135.608    -103.642     -32.855
  H     -140.153     -98.846     -26.491
  P     -140.519    -104.274     -25.436
  C     -138.713    -103.632     -23.715
  O     -138.973    -104.171     -25.006
  O     -140.837    -105.444     -26.305
  O     -141.257    -104.299     -24.015
  H     -140.996    -103.586     -23.406
  H     -137.657    -103.613     -23.542
  H     -139.185    -104.241     -22.973
  H     -139.101    -102.636     -23.659

 6  7  8  9  10  11  12  13  14  15  16  26  30  31  32  33  35 0
 6-311+G(2d,p)
 ****
 37  38 0
 6-311+G(2d,p)
 ****
 1  2  3  4  5  17  18  19  20  21  22  23  24  25 0
 3-21G
 ****
 27  28  29  34  36  39  40  41  42  43  44  45  46 0
 3-21G
 ****


