%nproc=1
%NoSave
%Mem=1900MB
#P OB98/GEN NMR

erre ene a

0 1
  C      312.490    -347.278    -302.680
  O      311.200    -347.249    -302.117
  P      310.786    -348.252    -300.939
  C      309.535    -349.897    -302.482
  O      310.642    -349.712    -301.603
  C      309.359    -351.386    -302.808
  O      308.085    -351.561    -303.519
  C      310.481    -351.943    -303.708
  O      311.122    -353.119    -303.202
  C      309.789    -352.093    -305.058
  O      310.433    -353.007    -305.930
  C      308.355    -352.440    -304.628
  N      307.389    -352.274    -305.715
  C      307.467    -353.177    -306.774
  O      308.279    -354.097    -306.846
  N      306.606    -352.956    -307.814
  C      305.772    -351.879    -307.950
  O      305.097    -351.696    -308.954
  C      305.761    -350.938    -306.814
  C      306.540    -351.187    -305.752
  O      309.611    -347.835    -300.120
  O      312.143    -348.407    -300.100
  H      311.299    -352.627    -306.174
  H      312.902    -348.757    -300.601
  H      306.646    -353.595    -308.585
  H      305.118    -350.073    -306.901
  H      306.557    -350.508    -304.904
  H      308.280    -353.470    -304.258
  H      309.797    -351.115    -305.548
  H      311.305    -351.218    -303.808
  H      309.307    -351.933    -301.863
  H      309.725    -349.345    -303.406
  H      308.627    -349.479    -302.031
  P      312.707    -353.339    -303.116
  C      312.996    -354.465    -305.441
  O      313.293    -353.372    -304.604
  O      313.141    -354.479    -302.249
  O      313.243    -351.948    -302.533
  H      314.066    -352.099    -302.024
  H      313.808    -354.592    -306.158
  H      312.076    -354.266    -306.007
  H      312.884    -355.391    -304.871
  H      312.562    -346.534    -303.446
  H      312.673    -348.244    -303.103
  H      313.216    -347.078    -301.919

 3  4  5  6  7  8  9  10  11  12  13  23  28  29  30  31  32 0
 6-311+G(2d,p)
 ****
 33  34 0
 6-311+G(2d,p)
 ****
 1  2  14  15  16  17  18  19  20  21  22  24  25  26  27 0
 3-21G
 ****
 35  36  37  38  39  40  41  42  43  44  45 0
 3-21G
 ****


