%nproc=1
%NoSave
%Mem=1900MB
#P OB98/GEN NMR

erre ene a

0 1
  C       37.826     128.121     -46.301
  O       36.915     127.340     -45.545
  P       35.875     126.419     -46.349
  C       33.386     127.179     -46.335
  O       34.697     127.391     -46.842
  C       33.199     127.940     -45.025
  O       33.536     129.333     -45.191
  C       31.768     127.934     -44.497
  O       31.454     126.735     -43.807
  C       31.806     129.107     -43.535
  O       32.411     128.705     -42.291
  C       32.715     130.102     -44.273
  N       32.284     135.039     -45.282
  C       33.292     134.358     -44.628
  N       34.295     135.105     -44.122
  N       33.316     133.056     -44.486
  C       32.240     132.440     -45.036
  C       31.179     133.007     -45.710
  C       31.161     134.449     -45.848
  O       30.273     135.116     -46.368
  N       30.287     132.060     -46.130
  C       30.800     130.918     -45.717
  N       31.960     131.101     -45.010
  O       35.178     125.557     -45.195
  O       36.487     125.560     -47.401
  H       31.900     127.936     -41.968
  H       34.729     124.781     -45.583
  H       32.309     136.046     -45.359
  H       30.360     129.942     -45.890
  H       33.392     130.622     -43.588
  H       30.810     129.494     -43.293
  H       34.306     136.115     -44.143
  H       31.048     128.142     -45.298
  H       35.017     134.637     -43.585
  H       33.886     127.512     -44.281
  H       33.233     126.112     -46.163
  H       32.655     127.518     -47.077
  P       29.917     126.264     -43.842
  C       28.875     126.518     -41.476
  O       29.181     127.129     -42.715
  O       29.979     124.790     -43.220
  O       29.298     126.283     -45.201
  H       29.235     124.249     -43.549
  H       28.629     127.299     -40.752
  H       29.727     125.946     -41.097
  H       28.009     125.857     -41.590
  H       38.453     128.679     -45.638
  H       37.282     128.795     -46.929
  H       38.430     127.478     -46.906

 3  4  5  6  7  8  9  10  11  12  23  26  30  31 0
 6-311+G(2d,p)
 ****
 33  35  36  37  38 0
 6-311+G(2d,p)
 ****
 1  2  13  14  15  16  17  18  19  20  21  22  24  25 0
 3-21G
 ****
 27  28  29  32  34  39  40  41  42  43  44  45  46  47  48  49 0
 3-21G
 ****


