%nproc=1
%NoSave
%Mem=1900MB
#P OB98/GEN NMR

erre ene a

0 1
  C     -118.664    -229.833     141.404
  O     -119.671    -228.931     140.927
  P     -120.901    -229.404     140.017
  C     -121.994    -227.949     138.185
  O     -121.761    -228.123     139.579
  C     -123.234    -227.091     137.922
  O     -124.398    -227.665     138.555
  C     -123.147    -225.664     138.452
  O     -122.325    -224.859     137.621
  C     -124.623    -225.267     138.467
  O     -125.060    -224.840     137.165
  C     -125.306    -226.589     138.870
  N     -125.695    -226.611     140.275
  C     -126.966    -226.124     140.576
  O     -127.680    -225.646     139.691
  N     -127.395    -226.161     141.885
  C     -126.594    -226.580     142.812
  N     -127.070    -226.602     144.085
  C     -125.208    -227.022     142.546
  C     -124.833    -227.012     141.271
  O     -121.715    -230.506     140.617
  O     -120.238    -229.889     138.639
  H     -124.693    -225.477     136.525
  H     -120.785    -230.602     138.257
  H     -124.562    -227.336     143.355
  H     -123.836    -227.328     140.985
  H     -126.198    -226.760     138.258
  H     -124.827    -224.442     139.158
  H     -122.765    -225.672     139.479
  H     -123.415    -227.083     136.836
  H     -128.023    -226.301     144.234
  H     -122.143    -228.941     137.736
  H     -126.528    -226.913     144.880
  H     -121.109    -227.486     137.734
  P     -121.153    -223.986     138.277
  C     -121.717    -221.805     137.046
  O     -120.764    -222.838     137.227
  O     -119.999    -224.760     138.821
  O     -121.890    -223.167     139.441
  H     -121.263    -223.016     140.169
  H     -121.202    -220.919     136.659
  H     -122.204    -221.549     137.988
  H     -122.470    -222.129     136.319
  H     -117.949    -229.293     141.988
  H     -118.172    -230.291     140.571
  H     -119.120    -230.589     142.008

 3  4  5  6  7  8  9  10  11  12  13  23  27  28  29  30  32 0
 6-311+G(2d,p)
 ****
 34  35 0
 6-311+G(2d,p)
 ****
 1  2  14  15  16  17  18  19  20  21  22  24  25  26 0
 3-21G
 ****
 31  33  36  37  38  39  40  41  42  43  44  45  46 0
 3-21G
 ****


