%nproc=1
%NoSave
%Mem=1900MB
#P OB98/GEN NMR

erre ene a

0 1
  C      380.006     969.673    -543.811
  O      379.521     968.503    -543.184
  H      380.779     970.110    -543.179
  H      379.196     970.397    -543.928
  H      380.439     969.438    -544.786
  P      378.487     967.570    -543.983
  C      376.431     967.849    -542.453
  O      377.462     966.976    -542.902
  C      375.689     967.213    -541.278
  O      374.988     966.027    -541.707
  C      376.614     966.749    -540.148
  O      377.083     967.835    -539.381
  C      375.695     965.786    -539.414
  O      374.819     966.482    -538.525
  C      374.905     965.139    -540.571
  N      375.414     963.809    -540.906
  C      375.268     962.834    -539.925
  O      374.750     963.039    -538.826
  N      375.817     961.608    -540.216
  C      376.595     961.325    -541.302
  O      377.263     960.297    -541.406
  C      376.652     962.369    -542.335
  C      376.079     963.545    -542.089
  O      379.104     966.559    -544.897
  O      377.583     968.617    -544.792
  H      377.875     968.640    -545.725
  H      374.036     965.902    -538.409
  H      375.757     960.911    -539.485
  H      377.195     962.152    -543.247
  H      376.133     964.350    -542.822
  H      373.840     965.062    -540.318
  H      376.270     965.063    -538.816
  H      377.458     966.187    -540.573
  H      374.948     967.932    -540.907
  H      375.723     968.017    -543.276
  H      376.877     968.806    -542.165
  P      378.472     968.543    -539.749
  C      379.974     968.065    -537.706
  O      379.167     969.028    -538.382
  O      378.400     969.578    -540.819
  O      379.416     967.323    -540.204
  H      379.830     967.547    -541.056
  H      380.380     968.501    -536.817
  H      380.772     967.755    -538.348
  H      379.375     967.217    -537.446

 6  7  8  9  10  11  12  13  14  15  16  27  31  32  33  34  35 0
 6-311+G(2d,p)
 ****
 36  37 0
 6-311+G(2d,p)
 ****
 1  2  3  4  5  17  18  19  20  21  22  23  24  25 0
 3-21G
 ****
 26  28  29  30  38  39  40  41  42  43  44  45 0
 3-21G
 ****


