%nproc=1
%NoSave
%Mem=1900MB
#P OB98/GEN NMR

erre ene a

0 1
  C      862.636     366.253      79.877
  O      861.449     367.011      79.768
  P      860.929     367.944      80.966
  C      858.602     367.769      82.065
  O      859.812     367.080      81.731
  C      857.850     367.048      83.188
  O      857.309     365.789      82.679
  C      858.713     366.705      84.426
  O      857.836     366.810      85.549
  C      859.075     365.261      84.167
  O      859.500     364.584      85.356
  C      857.798     364.725      83.527
  N      858.022     363.491      82.786
  C      858.003     362.301      83.517
  O      857.876     362.335      84.744
  N      858.181     361.111      82.856
  C      858.457     361.127      81.588
  N      858.609     359.912      80.981
  C      858.617     362.352      80.804
  C      858.368     363.501      81.449
  O      860.497     369.315      80.556
  O      862.141     367.936      82.008
  H      859.558     363.627      85.158
  H      862.868     368.533      81.699
  H      858.896     362.313      79.761
  H      858.453     364.460      80.957
  H      857.025     364.535      84.302
  H      859.914     365.208      83.455
  H      859.573     367.359      84.544
  H      856.997     367.674      83.490
  H      858.481     359.091      81.559
  H      857.972     367.792      81.176
  H      858.748     359.798      79.981
  H      858.834     368.800      82.350
  P      858.413     366.929      87.049
  C      857.791     365.507      89.074
  O      858.237     365.493      87.730
  O      857.870     368.085      87.835
  O      860.012     367.049      86.847
  H      860.409     367.381      87.671
  H      857.441     364.489      89.347
  H      856.974     366.212      89.215
  H      858.612     365.784      89.748
  H      862.795     365.707      78.971
  H      862.548     365.569      80.695
  H      863.464     366.909      80.048

 3  4  5  6  7  8  9  10  11  12  13  23  27  28  29  30  32 0
 6-311+G(2d,p)
 ****
 34  35 0
 6-311+G(2d,p)
 ****
 1  2  14  15  16  17  18  19  20  21  22  24  25  26 0
 3-21G
 ****
 31  33  36  37  38  39  40  41  42  43  44  45  46 0
 3-21G
 ****


