%nproc=1
%NoSave
%Mem=1900MB
#P OB98/GEN NMR

erre ene a

0 1
  C     -461.831    -416.937    -313.174
  O     -462.245    -415.901    -314.072
  P     -461.808    -414.398    -313.719
  C     -460.604    -413.633    -315.899
  O     -460.478    -414.052    -314.544
  C     -460.135    -414.747    -316.843
  O     -461.010    -415.887    -316.775
  C     -460.131    -414.330    -318.301
  O     -458.998    -413.535    -318.587
  C     -460.132    -415.679    -319.015
  O     -458.796    -416.156    -319.254
  C     -460.869    -416.601    -318.016
  N     -462.157    -417.052    -318.514
  C     -462.121    -418.044    -319.500
  O     -461.037    -418.475    -319.903
  N     -463.304    -418.508    -320.006
  C     -464.428    -418.005    -319.591
  N     -465.567    -418.503    -320.142
  C     -464.510    -416.938    -318.580
  C     -463.347    -416.509    -318.088
  O     -461.284    -414.516    -312.209
  O     -462.911    -413.399    -313.845
  H     -458.415    -415.555    -319.928
  H     -461.473    -413.695    -311.723
  H     -465.466    -416.542    -318.272
  H     -463.312    -415.720    -317.340
  H     -460.261    -417.488    -317.799
  H     -460.622    -415.614    -319.991
  H     -461.053    -413.786    -318.539
  H     -459.123    -415.057    -316.534
  H     -465.477    -419.233    -320.834
  H     -460.021    -412.730    -316.071
  H     -466.493    -418.178    -319.894
  H     -461.651    -413.373    -316.092
  P     -459.173    -411.944    -318.552
  C     -457.382    -410.717    -317.191
  O     -458.567    -411.484    -317.141
  O     -460.756    -411.788    -318.296
  O     -458.730    -411.174    -319.751
  H     -461.010    -410.851    -318.347
  H     -457.191    -410.299    -316.199
  H     -457.482    -409.895    -317.900
  H     -456.534    -411.351    -317.467
  H     -462.189    -417.881    -313.529
  H     -462.232    -416.747    -312.201
  H     -460.762    -416.958    -313.122

 3  4  5  6  7  8  9  10  11  12  13  21  23  27  28  29  30  32 0
 6-311+G(2d,p)
 ****
 34  35 0
 6-311+G(2d,p)
 ****
 1  2  14  15  16  17  18  19  20  22  24  25  26 0
 3-21G
 ****
 31  33  36  37  38  39  40  41  42  43  44  45  46 0
 3-21G
 ****


