%nproc=1
%NoSave
%Mem=1900MB
#P OB98/GEN NMR

erre ene a

0 1
  C      108.130    -427.384      58.441
  O      108.833    -426.280      57.901
  H      107.671    -427.076      59.383
  H      108.819    -428.211      58.632
  H      107.348    -427.699      57.749
  P      109.618    -426.531      56.523
  C      107.739    -425.242      55.315
  O      108.469    -426.461      55.398
  C      106.579    -425.382      54.322
  O      105.820    -426.567      54.668
  C      105.617    -424.190      54.343
  O      105.175    -423.916      53.010
  C      104.444    -424.697      55.171
  O      103.231    -424.021      54.857
  C      104.447    -426.189      54.834
  N      100.184    -428.627      56.219
  C      100.557    -428.053      55.058
  N      101.729    -427.436      54.761
  C      102.564    -427.488      55.823
  C      102.322    -428.043      57.061
  C      101.056    -428.624      57.256
  N      100.657    -429.193      58.446
  N      103.418    -427.863      57.891
  C      104.301    -427.223      57.154
  N      103.827    -426.965      55.890
  O      110.479    -427.750      56.481
  O      110.383    -425.140      56.324
  H      102.493    -424.657      54.964
  H      109.798    -424.381      56.517
  H       99.826    -428.087      54.257
  H      105.292    -426.923      57.480
  H      103.906    -426.409      53.903
  H      104.656    -424.542      56.236
  H      106.064    -423.295      54.773
  H      106.990    -425.543      53.319
  H      108.401    -424.427      54.994
  H       99.736    -429.605      58.487
  H      101.308    -429.215      59.217
  H      107.359    -425.007      56.315
  P      105.963    -422.818      52.166
  C      106.632    -424.425      50.255
  O      107.095    -423.545      51.279
  O      106.423    -421.611      52.917
  O      104.883    -422.402      51.048
  H      104.959    -421.438      50.878
  H      107.470    -424.844      49.739
  H      106.024    -423.879      49.564
  H      106.055    -425.211      50.695

 6  7  8  9  10  11  12  13  14  15  25  28  32  33  34  35 0
 6-311+G(2d,p)
 ****
 36  39  40 0
 6-311+G(2d,p)
 ****
 1  2  3  4  5  16  17  18  19  20  21  22  23  24 0
 3-21G
 ****
 26  27  29  30  31  37  38  41  42  43  44  45  46  47 0
 3-21G
 ****
 48 0
 3-21G
 ****


