%nproc=1
%NoSave
%Mem=1900MB
#P OB98/GEN NMR

erre ene a

0 1
  C     -320.910     211.928      75.413
  O     -321.726     210.814      75.011
  P     -323.100     210.528      75.797
  C     -321.839     209.219      77.668
  O     -322.807     210.201      77.338
  C     -322.062     208.667      79.085
  O     -321.941     209.736      80.068
  C     -323.438     208.011      79.298
  O     -323.255     206.947      80.242
  C     -324.241     209.137      79.932
  O     -325.392     208.680      80.627
  C     -323.167     209.763      80.826
  N     -323.474     211.125      81.272
  C     -323.838     211.313      82.602
  O     -323.972     210.407      83.419
  N     -324.072     212.613      82.979
  C     -324.029     213.708      82.163
  O     -324.285     214.842      82.554
  C     -323.674     213.444      80.762
  C     -323.414     212.187      80.389
  O     -323.517     209.090      75.218
  O     -324.193     211.516      75.550
  H     -325.939     208.189      79.984
  H     -324.466     209.090      74.985
  H     -324.320     212.768      83.939
  H     -323.621     214.290      80.083
  H     -323.139     211.971      79.359
  H     -323.010     209.125      81.706
  H     -324.571     209.826      79.148
  H     -323.880     207.628      78.375
  H     -321.262     207.951      79.298
  H     -320.839     209.669      77.618
  H     -321.886     208.410      76.935
  P     -323.266     205.435      79.698
  C     -325.525     204.866      80.888
  O     -324.790     204.944      79.689
  O     -322.645     204.670      80.968
  O     -322.482     205.221      78.442
  H     -323.033     204.961      81.807
  H     -325.325     205.723      81.535
  H     -325.275     203.944      81.414
  H     -326.592     204.855      80.643
  H     -320.040     211.975      74.792
  H     -320.614     211.803      76.433
  H     -321.469     212.835      75.313

 3  4  5  6  7  8  9  10  11  12  13  23  28  29  30  31  32 0
 6-311+G(2d,p)
 ****
 33  34 0
 6-311+G(2d,p)
 ****
 1  2  14  15  16  17  18  19  20  21  22  24  25  26 0
 3-21G
 ****
 27  35  36  37  38  39  40  41  42  43  44  45 0
 3-21G
 ****


