%nproc=1
%NoSave
%Mem=1900MB
#P OB98/GEN NMR

erre ene a

0 1
  C     -314.572     -71.989    -266.308
  O     -313.256     -72.390    -266.717
  P     -312.270     -72.982    -265.600
  C     -311.618     -75.070    -267.006
  O     -312.184     -74.568    -265.804
  C     -311.470     -76.591    -266.932
  O     -310.307     -76.976    -266.164
  C     -312.652     -77.289    -266.273
  O     -313.720     -77.496    -267.188
  C     -312.031     -78.624    -265.892
  O     -311.988     -79.488    -267.047
  C     -310.613     -78.215    -265.476
  N     -310.699     -80.521    -260.972
  C     -310.865     -81.041    -262.243
  N     -311.078     -82.374    -262.327
  N     -310.825     -80.321    -263.332
  C     -310.587     -79.007    -263.101
  C     -310.407     -78.377    -261.891
  C     -310.469     -79.182    -260.692
  O     -310.344     -78.776    -259.541
  N     -310.197     -77.032    -262.057
  C     -310.230     -76.853    -263.364
  N     -310.481     -78.020    -264.041
  O     -313.132     -72.845    -264.257
  O     -310.963     -72.266    -265.493
  H     -311.577     -78.972    -267.767
  H     -312.536     -72.752    -263.488
  H     -310.744     -81.122    -260.168
  H     -310.077     -75.906    -263.864
  H     -309.858     -78.954    -265.770
  H     -312.607     -79.151    -265.128
  H     -311.069     -82.994    -261.532
  H     -312.977     -76.754    -265.370
  H     -311.167     -82.776    -263.250
  H     -311.352     -76.973    -267.954
  H     -310.644     -74.609    -267.189
  H     -312.251     -74.770    -267.847
  P     -315.218     -77.364    -266.633
  C     -316.281     -75.475    -268.068
  O     -315.640     -75.834    -266.860
  O     -315.022     -77.486    -265.050
  O     -316.168     -78.390    -267.154
  H     -315.807     -77.902    -264.646
  H     -316.635     -74.447    -267.982
  H     -317.134     -76.128    -268.262
  H     -315.570     -75.537    -268.899
  H     -315.111     -71.617    -267.154
  H     -314.497     -71.220    -265.567
  H     -315.090     -72.830    -265.897

 3  4  5  6  7  8  9  10  11  12  23  26  30  31 0
 6-311+G(2d,p)
 ****
 33  35  36  37  38 0
 6-311+G(2d,p)
 ****
 1  2  13  14  15  16  17  18  19  20  21  22  24  25 0
 3-21G
 ****
 27  28  29  32  34  39  40  41  42  43  44  45  46  47  48  49 0
 3-21G
 ****


