%nproc=1
%NoSave
%Mem=1900MB
#P OB98/GEN NMR

erre ene a

0 1
  C       -0.605      -0.086     -31.571
  O        0.096      -0.812     -32.556
  H       -0.900      -0.774     -30.775
  H       -1.506       0.352     -32.010
  H        0.015       0.705     -31.140
  P        1.014      -0.013     -33.595
  C       -0.621      -0.500     -35.531
  O        0.070       0.497     -34.790
  C       -1.474       0.105     -36.646
  O       -2.183       1.266     -36.158
  C       -0.630       0.590     -37.825
  O       -0.288      -0.403     -38.774
  C       -1.539       1.648     -38.444
  O       -2.476       1.050     -39.354
  C       -2.266       2.224     -37.227
  N       -2.642       7.317     -37.331
  C       -3.400       6.376     -38.000
  N       -4.336       6.857     -38.847
  N       -3.235       5.088     -37.860
  C       -2.199       4.756     -37.054
  C       -1.370       5.599     -36.349
  C       -1.596       7.025     -36.468
  O       -0.948       7.901     -35.903
  N       -0.430       4.898     -35.632
  C       -0.645       3.640     -35.962
  N       -1.724       3.502     -36.802
  O        1.873      -1.167     -34.304
  O        1.905       1.030     -32.992
  H       -1.977       0.533     -40.013
  H        2.715      -0.801     -34.628
  H       -2.831       8.297     -37.455
  H       -0.068       2.795     -35.603
  H       -3.333       2.379     -37.434
  H       -0.969       2.386     -39.017
  H       -4.420       7.835     -39.074
  H        0.278       1.086     -37.466
  H       -4.722       6.217     -39.544
  H       -2.228      -0.626     -36.961
  H       -1.257      -1.034     -34.822
  H        0.087      -1.225     -35.942
  P        1.227      -0.548     -39.270
  C        0.947       0.374     -41.688
  O        1.463       0.574     -40.390
  O        1.199      -1.915     -40.100
  O        2.245      -0.579     -38.182
  H        1.501      -2.655     -39.540
  H        1.194       1.214     -42.303
  H       -0.117       0.270     -41.637
  H        1.372      -0.513     -42.108

 6  7  8  9  10  11  12  13  14  15  26  29  33  34 0
 6-311+G(2d,p)
 ****
 36  38  39  40  41 0
 6-311+G(2d,p)
 ****
 1  2  3  4  5  16  17  18  19  20  21  22  23  24  25 0
 3-21G
 ****
 27  28  30  31  32  35  37  42  43  44  45  46  47 0
 3-21G
 ****
 48  49 0
 3-21G
 ****


