%nproc=1
%NoSave
%Mem=1900MB
#P OB98/GEN NMR

erre ene a

0 1
  C     -183.303     -98.429     838.313
  O     -182.027     -98.015     838.849
  P     -181.562     -98.362     840.338
  C     -179.495     -99.456     841.457
  O     -179.988     -98.711     840.336
  C     -178.291    -100.318     841.080
  O     -178.612    -101.212     839.980
  C     -177.075     -99.526     840.597
  O     -176.389     -98.932     841.701
  C     -176.289    -100.622     839.875
  O     -175.512    -101.408     840.816
  C     -177.414    -101.462     839.254
  N     -177.583    -101.188     837.820
  C     -176.521    -101.521     836.983
  O     -175.464    -101.974     837.474
  N     -176.646    -101.317     835.631
  C     -177.725    -100.754     835.169
  N     -177.816    -100.579     833.814
  C     -178.842    -100.293     836.033
  C     -178.702    -100.542     837.316
  O     -182.405     -99.395     841.023
  O     -181.622     -96.960     841.126
  H     -175.172    -102.185     840.319
  H     -181.818     -97.138     842.060
  H     -179.700     -99.807     835.599
  H     -179.474    -100.248     838.025
  H     -177.206    -102.538     839.374
  H     -175.581    -100.217     839.139
  H     -177.379     -98.757     839.873
  H     -178.024    -100.941     841.950
  H     -177.028    -100.910     833.253
  H     -180.317    -100.113     841.813
  H     -178.604    -100.149     833.348
  H     -179.232     -98.749     842.252
  P     -176.443     -97.336     841.881
  C     -176.640     -95.757     843.911
  O     -176.225     -97.023     843.439
  O     -177.616     -96.651     841.268
  O     -175.066     -96.825     841.238
  H     -175.208     -95.936     840.846
  H     -176.823     -95.801     844.979
  H     -177.567     -95.429     843.392
  H     -175.853     -95.004     843.699
  H     -183.394     -98.085     837.304
  H     -184.091     -98.012     838.905
  H     -183.369     -99.497     838.333

 3  4  5  6  7  8  9  10  11  12  13  23  27  28  29  30  32 0
 6-311+G(2d,p)
 ****
 34  35 0
 6-311+G(2d,p)
 ****
 1  2  14  15  16  17  18  19  20  21  22  24  25  26 0
 3-21G
 ****
 31  33  36  37  38  39  40  41  42  43  44  45  46 0
 3-21G
 ****


