%nproc=1
%NoSave
%Mem=1900MB
#P OB98/GEN NMR

erre ene a

0 1
  C      -88.162     116.564     377.312
  O      -87.427     116.235     378.481
  P      -86.764     114.786     378.662
  C      -87.639     115.057     381.065
  O      -87.466     114.171     379.966
  C      -89.069     114.970     381.590
  O      -89.976     115.089     380.467
  C      -89.452     113.660     382.276
  O      -89.094     113.583     383.646
  C      -90.969     113.707     382.155
  O      -91.510     114.583     383.159
  C      -91.164     114.313     380.761
  N      -94.271     110.647     379.006
  C      -94.386     111.511     380.037
  N      -93.505     112.448     380.452
  C      -92.428     112.471     379.651
  C      -92.172     111.653     378.563
  C      -93.156     110.704     378.240
  N      -93.047     109.837     377.173
  N      -90.948     111.962     377.997
  C      -90.483     112.952     378.732
  N      -91.344     113.299     379.736
  O      -85.275     114.784     378.667
  O      -87.384     113.917     377.474
  H      -91.124     115.467     383.003
  H      -86.851     113.107     377.339
  H      -95.307     111.443     380.610
  H      -89.536     113.441     378.575
  H      -92.020     114.996     380.715
  H      -91.438     112.730     382.298
  H      -89.073     112.793     381.718
  H      -89.245     115.823     382.258
  H      -87.447     116.079     380.717
  H      -93.855     109.282     376.942
  H      -92.298     109.991     376.513
  H      -86.916     114.819     381.850
  P      -87.919     112.557     384.044
  C      -89.431     111.423     385.855
  O      -88.655     111.287     384.683
  O      -86.829     113.150     384.867
  O      -87.424     112.017     382.618
  H      -88.066     111.473     382.135
  H      -89.972     110.492     386.032
  H      -90.159     112.233     385.747
  H      -88.784     111.622     386.715
  H      -88.519     117.570     377.386
  H      -88.993     115.897     377.214
  H      -87.528     116.473     376.455

 3  4  5  6  7  8  9  10  11  12  22  25  29  30  31  32 0
 6-311+G(2d,p)
 ****
 33  36  37 0
 6-311+G(2d,p)
 ****
 1  2  13  14  15  16  17  18  19  20  21  23  24  26 0
 3-21G
 ****
 27  28  34  35  38  39  40  41  42  43  44  45  46  47  48 0
 3-21G
 ****


