%nproc=1
%NoSave
%Mem=1900MB
#P OB98/GEN NMR

erre ene a

0 1
  C     -239.002     -60.024    -295.849
  O     -237.942     -60.913    -296.119
  P     -236.569     -60.916    -295.302
  C     -235.333     -60.563    -297.561
  O     -235.450     -60.182    -296.193
  C     -234.304     -59.723    -298.331
  O     -234.793     -58.370    -298.467
  C     -232.995     -59.631    -297.538
  O     -232.040     -60.671    -297.619
  C     -232.454     -58.238    -297.826
  O     -231.451     -58.233    -298.844
  C     -233.693     -57.463    -298.293
  N     -232.186     -53.729    -295.216
  C     -231.470     -54.392    -296.193
  N     -230.141     -54.154    -296.214
  N     -232.012     -55.221    -297.045
  C     -233.331     -55.430    -296.836
  C     -234.152     -54.823    -295.908
  C     -233.550     -53.877    -295.001
  O     -234.132     -53.330    -294.065
  N     -235.423     -55.334    -295.940
  C     -235.364     -56.283    -296.853
  N     -234.109     -56.406    -297.397
  O     -236.206     -62.183    -294.597
  O     -236.874     -59.807    -294.166
  H     -231.149     -57.315    -298.965
  H     -236.412     -60.085    -293.350
  H     -231.703     -53.158    -294.532
  H     -236.194     -56.926    -297.134
  H     -233.511     -57.003    -299.271
  H     -231.987     -57.809    -296.931
  H     -229.673     -53.636    -295.486
  H     -233.274     -59.611    -296.474
  H     -229.564     -54.747    -296.801
  H     -234.174     -60.093    -299.351
  H     -236.323     -60.473    -298.013
  H     -235.048     -61.621    -297.618
  P     -230.730     -60.827    -296.717
  C     -229.288     -61.145    -298.810
  O     -229.457     -60.421    -297.604
  O     -230.554     -62.409    -296.544
  O     -230.804     -60.160    -295.380
  H     -230.019     -62.597    -295.748
  H     -228.264     -61.016    -299.165
  H     -229.979     -60.762    -299.566
  H     -229.475     -62.215    -298.655
  H     -239.809     -60.215    -296.525
  H     -238.663     -59.017    -295.974
  H     -239.338     -60.165    -294.843

 3  4  5  6  7  8  9  10  11  12  23  26  30  31 0
 6-311+G(2d,p)
 ****
 33  35  36  37  38 0
 6-311+G(2d,p)
 ****
 1  2  13  14  15  16  17  18  19  20  21  22  24  25 0
 3-21G
 ****
 27  28  29  32  34  39  40  41  42  43  44  45  46  47  48  49 0
 3-21G
 ****


