%nproc=1
%NoSave
%Mem=1900MB
#P OB98/GEN NMR

erre ene a

0 1
  C       88.573    -180.523     -44.460
  O       88.502    -179.115     -44.371
  H       88.837    -180.800     -45.484
  H       87.604    -180.963     -44.214
  H       89.338    -180.911     -43.781
  P       88.241    -178.487     -42.920
  C       85.930    -179.575     -42.412
  O       87.321    -179.543     -42.133
  C       85.288    -180.773     -41.713
  O       83.853    -180.722     -41.929
  C       85.784    -182.123     -42.244
  O       85.868    -183.050     -41.158
  C       84.682    -182.547     -43.199
  O       84.625    -183.949     -43.421
  C       83.447    -181.991     -42.483
  N       82.307    -181.824     -43.381
  C       81.637    -182.972     -43.786
  O       81.888    -184.109     -43.385
  N       80.631    -182.780     -44.699
  C       80.259    -181.590     -45.248
  O       79.365    -181.484     -46.079
  C       81.009    -180.412     -44.787
  C       81.983    -180.581     -43.890
  O       87.235    -177.278     -43.216
  O       89.457    -178.053     -42.175
  H       87.731    -176.455     -43.386
  H       83.793    -184.145     -43.897
  H       80.134    -183.604     -45.002
  H       80.747    -179.451     -45.208
  H       82.566    -179.736     -43.541
  H       83.167    -182.640     -41.645
  H       84.820    -182.057     -44.170
  H       86.751    -182.054     -42.745
  H       85.456    -180.687     -40.632
  H       85.783    -179.667     -43.493
  H       85.470    -178.643     -42.066
  P       87.335    -183.488     -40.672
  C       87.394    -185.847     -41.797
  O       87.877    -184.515     -41.781
  O       86.989    -184.406     -39.413
  O       88.224    -182.324     -40.386
  H       86.186    -184.941     -39.531
  H       87.859    -186.386     -42.596
  H       86.334    -185.840     -41.941
  H       87.624    -186.321     -40.866

 6  7  8  9  10  11  12  13  14  15  16  27  31  32  33  34  35 0
 6-311+G(2d,p)
 ****
 36  37 0
 6-311+G(2d,p)
 ****
 1  2  3  4  5  17  18  19  20  21  22  23  24  25 0
 3-21G
 ****
 26  28  29  30  38  39  40  41  42  43  44  45 0
 3-21G
 ****


