%nproc=1
%NoSave
%Mem=1900MB
#P OB98/GEN NMR

erre ene a

0 1
  C      789.696    1227.159     529.466
  O      790.677    1226.390     528.818
  P      790.153    1225.148     527.897
  C      789.986    1226.553     525.706
  O      790.653    1225.482     526.403
  C      790.655    1226.817     524.369
  O      792.001    1227.341     524.596
  C      790.836    1225.611     523.459
  O      789.653    1225.309     522.743
  C      791.934    1226.102     522.533
  O      791.379    1226.984     521.535
  C      792.842    1226.915     523.492
  N      797.352    1224.836     522.265
  C      796.412    1225.445     521.531
  N      795.226    1225.977     521.911
  C      795.008    1225.749     523.226
  C      795.888    1225.093     524.117
  C      797.070    1224.625     523.578
  N      798.068    1223.996     524.357
  N      795.324    1225.046     525.374
  C      794.193    1225.685     525.263
  N      793.963    1226.146     523.999
  O      788.579    1225.382     527.851
  O      790.525    1223.807     528.416
  H      790.908    1226.410     520.898
  H      788.126    1224.530     527.659
  H      796.632    1225.565     520.470
  H      793.510    1225.866     526.072
  H      793.226    1227.815     523.024
  H      792.441    1225.290     522.020
  H      791.196    1224.750     524.033
  H      790.080    1227.619     523.871
  H      789.987    1227.449     526.323
  H      798.943    1223.868     523.921
  H      797.958    1224.019     525.370
  H      788.921    1226.237     525.546
  P      789.659    1223.969     521.851
  C      787.802    1222.954     523.388
  O      788.199    1223.344     522.067
  O      790.649    1222.995     522.694
  O      790.122    1224.182     520.461
  H      791.041    1222.346     522.101
  H      786.702    1222.845     523.404
  H      788.062    1223.756     524.106
  H      788.289    1222.029     523.672
  H      790.167    1227.935     530.033
  H      789.128    1226.533     530.122
  H      789.045    1227.595     528.737

 3  4  5  6  7  8  9  10  11  12  22  25  29  30  31  32 0
 6-311+G(2d,p)
 ****
 33  36  37 0
 6-311+G(2d,p)
 ****
 1  2  13  14  15  16  17  18  19  20  21  23  24  26 0
 3-21G
 ****
 27  28  34  35  38  39  40  41  42  43  44  45  46  47  48 0
 3-21G
 ****


