%nproc=1
%NoSave
%Mem=1900MB
#P OB98/GEN NMR

erre ene a

0 1
  C       91.655     -80.731      -6.927
  O       90.780     -80.658      -5.818
  H       92.158     -81.703      -6.947
  H       91.070     -80.619      -7.844
  H       92.396     -79.927      -6.880
  P       91.451     -80.773      -4.366
  C       92.266     -82.732      -2.868
  O       91.646     -82.344      -4.085
  C       92.502     -84.239      -2.857
  O       93.570     -84.586      -3.766
  C       92.912     -84.814      -1.503
  O       91.795     -84.994      -0.645
  C       93.510     -86.145      -1.928
  O       92.455     -87.090      -2.188
  C       94.219     -85.773      -3.241
  N       98.959     -87.291      -4.439
  C       97.745     -87.737      -4.831
  N       96.526     -87.265      -4.484
  C       96.641     -86.214      -3.654
  C       97.811     -85.634      -3.187
  C       99.017     -86.221      -3.606
  N      100.257     -85.801      -3.145
  N       97.528     -84.580      -2.340
  C       96.212     -84.537      -2.284
  N       95.634     -85.500      -3.071
  O       90.252     -80.355      -3.385
  O       92.660     -79.922      -4.155
  H       91.974     -87.213      -1.349
  H       90.345     -79.414      -3.150
  H       97.750     -88.580      -5.509
  H       95.640     -83.835      -1.694
  H       94.120     -86.557      -4.001
  H       94.161     -86.587      -1.168
  H       93.691     -84.204      -1.029
  H       91.587     -84.728      -3.223
  H       91.619     -82.461      -2.026
  H      100.954     -86.539      -3.126
  H      100.216     -85.188      -2.336
  H       93.217     -82.199      -2.775
  P       92.059     -85.648       0.797
  C       93.035     -87.880       1.667
  O       92.655     -87.115       0.531
  O       90.575     -85.929       1.333
  O       92.828     -84.800       1.751
  H       90.450     -85.488       2.198
  H       93.413     -88.829       1.348
  H       92.184     -88.029       2.298
  H       93.795     -87.358       2.210

 6  7  8  9  10  11  12  13  14  15  25  28  32  33  34  35 0
 6-311+G(2d,p)
 ****
 36  39  40 0
 6-311+G(2d,p)
 ****
 1  2  3  4  5  16  17  18  19  20  21  22  23  24 0
 3-21G
 ****
 26  27  29  30  31  37  38  41  42  43  44  45  46  47  48 0
 3-21G
 ****


