%nproc=1
%NoSave
%Mem=1900MB
#P OB98/GEN NMR

erre ene a

0 1
  C       65.827      -5.129     108.592
  O       67.156      -5.569     108.748
  P       68.431      -4.686     108.381
  C       68.523      -5.715     105.980
  O       69.217      -5.400     107.180
  C       69.505      -6.011     104.836
  O       68.742      -6.367     103.655
  C       70.338      -4.771     104.474
  O       71.709      -5.047     104.218
  C       69.532      -4.137     103.349
  O       70.286      -3.246     102.540
  C       68.968      -5.365     102.642
  N       66.809      -3.601      98.395
  C       68.139      -3.870      98.646
  N       69.018      -3.446      97.712
  N       68.563      -4.467      99.730
  C       67.581      -4.732     100.622
  C       66.230      -4.512     100.483
  C       65.772      -3.883      99.267
  O       64.615      -3.522      99.051
  N       65.541      -4.843     101.620
  C       66.477      -5.231     102.462
  N       67.736      -5.148     101.912
  O       69.230      -4.155     109.526
  O       67.751      -3.426     107.634
  H       70.873      -3.784     101.977
  H       68.292      -2.639     107.848
  H       66.552      -3.065      97.574
  H       66.306      -5.550     103.484
  H       69.678      -5.772     101.920
  H       68.731      -3.547     103.809
  H       68.735      -2.855      96.943
  H       70.376      -4.074     105.319
  H       69.997      -3.405      97.985
  H       70.125      -6.871     105.108
  H       67.914      -4.837     105.736
  H       67.847      -6.559     106.137
  P       72.983      -4.729     105.125
  C       73.445      -2.489     103.964
  O       73.962      -3.759     104.310
  O       73.805      -6.098     105.182
  O       72.662      -4.262     106.508
  H       74.168      -6.226     106.079
  H       74.084      -2.048     103.195
  H       73.447      -1.840     104.843
  H       72.426      -2.577     103.573
  H       65.156      -5.901     108.907
  H       65.646      -4.897     107.563
  H       65.669      -4.254     109.188

 3  4  5  6  7  8  9  10  11  12  23  26  30  31 0
 6-311+G(2d,p)
 ****
 33  35  36  37  38 0
 6-311+G(2d,p)
 ****
 1  2  13  14  15  16  17  18  19  20  21  22  24  25 0
 3-21G
 ****
 27  28  29  32  34  39  40  41  42  43  44  45  46  47  48  49 0
 3-21G
 ****


