%nproc=1
%NoSave
%Mem=1900MB
#P OB98/GEN NMR

erre ene a

0 1
  C     -210.327     246.883     -55.067
  O     -209.259     246.165     -55.662
  P     -208.152     245.450     -54.755
  C     -206.287     246.017     -56.439
  O     -206.978     244.986     -55.755
  C     -206.085     245.656     -57.909
  O     -205.286     244.447     -57.986
  C     -207.386     245.395     -58.657
  O     -207.257     245.873     -59.999
  C     -207.496     243.882     -58.697
  O     -208.290     243.443     -59.819
  C     -206.021     243.468     -58.752
  N     -205.311     238.477     -59.717
  C     -205.483     239.532     -60.539
  N     -205.694     240.826     -60.216
  C     -205.659     240.995     -58.875
  C     -205.480     240.012     -57.917
  C     -205.305     238.689     -58.379
  N     -205.115     237.618     -57.540
  N     -205.536     240.555     -56.642
  C     -205.717     241.843     -56.840
  N     -205.783     242.163     -58.178
  O     -208.660     244.379     -53.856
  O     -207.468     246.644     -53.932
  H     -209.230     243.488     -59.547
  H     -207.261     246.359     -53.024
  H     -205.459     239.310     -61.606
  H     -205.809     242.585     -56.061
  H     -205.632     243.475     -59.775
  H     -207.984     243.520     -57.785
  H     -208.253     245.861     -58.177
  H     -205.509     246.459     -58.392
  H     -205.310     246.161     -55.962
  H     -204.874     236.733     -57.966
  H     -204.939     237.803     -56.559
  H     -206.847     246.957     -56.343
  P     -208.513     246.709     -60.567
  C     -209.423     245.055     -62.371
  O     -208.672     246.216     -62.092
  O     -208.361     248.180     -60.344
  O     -209.727     246.029     -59.775
  H     -209.511     245.119     -59.500
  H     -209.387     244.863     -63.447
  H     -210.475     245.210     -62.080
  H     -209.017     244.192     -61.835
  H     -210.957     247.285     -55.833
  H     -209.933     247.681     -54.474
  H     -210.897     246.224     -54.446

 3  4  5  6  7  8  9  10  11  12  22  25  29  30  31  32 0
 6-311+G(2d,p)
 ****
 33  36  37 0
 6-311+G(2d,p)
 ****
 1  2  13  14  15  16  17  18  19  20  21  23  24  26 0
 3-21G
 ****
 27  28  34  35  38  39  40  41  42  43  44  45  46  47  48 0
 3-21G
 ****


