%nproc=1
%NoSave
%Mem=1900MB
#P OB98/GEN NMR

erre ene a

0 1
  C      189.585    -318.469    -173.759
  O      189.713    -318.035    -172.426
  H      190.417    -318.060    -174.339
  H      188.643    -318.100    -174.176
  H      189.616    -319.560    -173.829
  P      188.932    -318.833    -171.274
  C      190.843    -320.518    -170.843
  O      190.016    -319.493    -170.289
  C      191.948    -320.933    -169.868
  O      192.984    -319.915    -169.851
  C      191.442    -321.077    -168.428
  O      190.909    -322.359    -168.121
  C      192.711    -320.799    -167.622
  O      193.467    -322.001    -167.412
  C      193.487    -319.822    -168.509
  N      195.754    -315.961    -166.024
  C      196.152    -317.293    -166.120
  N      197.261    -317.623    -165.431
  N      195.500    -318.183    -166.806
  C      194.344    -317.726    -167.351
  C      193.846    -316.445    -167.315
  C      194.617    -315.432    -166.620
  O      194.319    -314.250    -166.519
  N      192.635    -316.353    -167.954
  C      192.362    -317.600    -168.302
  N      193.403    -318.451    -168.035
  O      188.340    -320.110    -172.045
  O      187.827    -318.072    -170.602
  H      192.908    -322.627    -166.908
  H      187.503    -320.383    -171.635
  H      196.315    -315.306    -165.500
  H      191.450    -317.929    -168.797
  H      194.557    -320.078    -168.547
  H      192.462    -320.407    -166.632
  H      197.760    -316.996    -164.817
  H      190.714    -320.296    -168.196
  H      197.478    -318.615    -165.317
  H      192.415    -321.857    -170.228
  H      191.280    -320.108    -171.755
  H      190.236    -321.379    -171.118
  P      189.650    -322.505    -167.147
  C      187.851    -321.693    -168.881
  O      188.347    -322.714    -168.041
  O      189.466    -321.031    -166.567
  O      189.790    -323.524    -166.056
  H      189.871    -320.951    -165.670
  H      186.975    -322.042    -169.387
  H      188.598    -321.429    -169.601
  H      187.604    -320.835    -168.292

 6  7  8  9  10  11  12  13  14  15  26  29  33  34 0
 6-311+G(2d,p)
 ****
 36  38  39  40  41 0
 6-311+G(2d,p)
 ****
 1  2  3  4  5  16  17  18  19  20  21  22  23  24  25 0
 3-21G
 ****
 27  28  30  31  32  35  37  42  43  44  45  46  47 0
 3-21G
 ****
 48  49 0
 3-21G
 ****


