%nproc=1
%NoSave
%Mem=1900MB
#P OB98/GEN NMR

erre ene a

0 1
  C     -455.591      87.274    -434.734
  O     -455.892      87.369    -433.356
  H     -455.479      88.283    -435.139
  H     -456.407      86.771    -435.259
  H     -454.658      86.724    -434.884
  P     -455.928      86.000    -432.526
  C     -457.102      83.680    -432.888
  O     -457.050      85.067    -433.198
  C     -458.556      83.232    -432.746
  O     -459.329      83.596    -433.908
  C     -458.730      81.725    -432.653
  O     -458.288      81.200    -431.422
  C     -460.231      81.608    -432.874
  O     -460.956      81.924    -431.677
  C     -460.464      82.692    -433.957
  N     -460.644      82.122    -435.284
  C     -461.696      81.205    -435.416
  O     -462.406      80.933    -434.450
  N     -461.890      80.602    -436.634
  C     -461.128      80.902    -437.637
  N     -461.367      80.264    -438.810
  C     -460.026      81.882    -437.545
  C     -459.840      82.442    -436.353
  O     -456.614      86.444    -431.151
  O     -454.611      85.316    -432.367
  H     -461.901      81.796    -431.886
  H     -457.463      86.901    -431.268
  H     -459.419      82.109    -438.412
  H     -459.053      83.171    -436.200
  H     -461.355      83.286    -433.719
  H     -460.525      80.599    -433.166
  H     -458.227      81.233    -433.495
  H     -458.986      83.743    -431.875
  H     -462.118      79.585    -438.830
  H     -456.540      83.463    -431.974
  H     -460.817      80.393    -439.648
  H     -456.620      83.139    -433.707
  P     -458.059      79.623    -431.244
  C     -459.421      77.515    -431.816
  O     -459.231      78.902    -432.073
  O     -457.919      79.155    -429.836
  O     -456.775      79.333    -432.157
  H     -456.884      79.557    -433.099
  H     -460.223      77.147    -432.421
  H     -459.660      77.373    -430.783
  H     -458.523      76.983    -432.051

 6  7  8  9  10  11  12  13  14  15  16  26  30  31  32  33  35 0
 6-311+G(2d,p)
 ****
 37  38 0
 6-311+G(2d,p)
 ****
 1  2  3  4  5  17  18  19  20  21  22  23  24  25 0
 3-21G
 ****
 27  28  29  34  36  39  40  41  42  43  44  45  46 0
 3-21G
 ****


