%nproc=1
%NoSave
%Mem=1900MB
#P OB98/GEN NMR

erre ene a

0 1
  C      761.501      28.429     209.001
  O      760.436      27.678     208.459
  H      762.401      28.236     208.416
  H      761.682      28.118     210.032
  H      761.281      29.501     208.967
  P      758.958      28.038     208.961
  C      758.716      25.886     210.386
  O      758.750      27.304     210.379
  C      757.852      25.381     211.546
  O      757.675      23.946     211.396
  C      758.455      25.639     212.928
  O      757.403      25.987     213.832
  C      759.041      24.296     213.315
  O      759.144      24.129     214.734
  C      758.066      23.337     212.643
  N      759.673      19.131     214.914
  C      759.018      20.226     215.432
  N      758.751      20.216     216.758
  N      758.648      21.264     214.715
  C      758.942      21.126     213.398
  C      759.599      20.092     212.764
  C      760.020      18.972     213.576
  O      760.624      17.981     213.181
  N      759.735      20.344     211.425
  C      759.176      21.526     211.248
  N      758.673      22.034     212.409
  O      758.024      27.206     207.966
  O      758.611      29.489     208.945
  H      758.253      23.890     215.063
  H      757.487      27.818     207.424
  H      759.942      18.370     215.521
  H      759.111      22.054     210.307
  H      757.164      23.168     213.247
  H      760.049      24.190     212.894
  H      758.961      19.436     217.360
  H      759.209      26.431     212.925
  H      758.237      20.996     217.153
  H      756.857      25.833     211.455
  H      759.741      25.506     210.504
  H      758.311      25.526     209.433
  P      757.406      27.487     214.407
  C      759.348      27.194     216.096
  O      758.892      27.828     214.914
  O      756.571      27.361     215.769
  O      756.799      28.492     213.491
  H      755.697      27.769     215.659
  H      760.346      27.514     216.310
  H      759.335      26.133     215.959
  H      758.707      27.456     216.911

 6  7  8  9  10  11  12  13  14  15  26  29  33  34 0
 6-311+G(2d,p)
 ****
 36  38  39  40  41 0
 6-311+G(2d,p)
 ****
 1  2  3  4  5  16  17  18  19  20  21  22  23  24  25 0
 3-21G
 ****
 27  28  30  31  32  35  37  42  43  44  45  46  47 0
 3-21G
 ****
 48  49 0
 3-21G
 ****


