%nproc=1
%NoSave
%Mem=1900MB
#P OB98/GEN NMR

erre ene a

0 1
  C     -123.333     407.966    -405.419
  O     -123.233     409.114    -404.574
  P     -124.501     410.092    -404.445
  C     -124.003     411.351    -402.257
  O     -124.044     411.428    -403.675
  C     -122.677     410.777    -401.739
  O     -121.547     411.438    -402.365
  C     -122.485     410.896    -400.217
  O     -121.786     409.726    -399.791
  C     -121.611     412.129    -400.096
  O     -120.962     412.209    -398.835
  C     -120.695     411.935    -401.309
  N     -120.015     413.159    -401.697
  C     -118.919     413.549    -400.926
  O     -118.626     412.922    -399.908
  N     -118.200     414.655    -401.317
  C     -118.637     415.388    -402.294
  N     -117.889     416.461    -402.664
  C     -119.891     415.106    -403.016
  C     -120.509     413.974    -402.685
  O     -125.748     409.461    -403.917
  O     -124.709     410.607    -405.948
  H     -121.630     412.102    -398.127
  H     -125.665     410.729    -406.113
  H     -120.262     415.792    -403.766
  H     -121.434     413.675    -403.156
  H     -119.941     411.163    -401.110
  H     -122.224     413.026    -400.219
  H     -123.431     410.969    -399.667
  H     -122.633     409.718    -402.028
  H     -117.040     416.656    -402.145
  H     -124.825     410.718    -401.908
  H     -118.132     417.053    -403.449
  H     -124.190     412.348    -401.841
  P     -122.599     408.549    -399.060
  C     -121.866     406.347    -400.221
  O     -121.715     407.216    -399.128
  O     -123.753     408.237    -400.140
  O     -123.216     408.898    -397.743
  H     -124.518     407.848    -399.677
  H     -121.013     405.663    -400.253
  H     -121.901     406.896    -401.170
  H     -122.782     405.757    -400.104
  H     -122.411     407.424    -405.395
  H     -123.537     408.278    -406.422
  H     -124.126     407.336    -405.073

 3  4  5  6  7  8  9  10  11  12  13  23  27  28  29  30  32 0
 6-311+G(2d,p)
 ****
 34  35 0
 6-311+G(2d,p)
 ****
 1  2  14  15  16  17  18  19  20  21  22  24  25  26 0
 3-21G
 ****
 31  33  36  37  38  39  40  41  42  43  44  45  46 0
 3-21G
 ****


