%nproc=1
%NoSave
%Mem=1900MB
#P OB98/GEN NMR

erre ene a

0 1
  C     -158.089     836.336     244.842
  O     -158.933     835.341     244.291
  P     -159.877     835.764     243.056
  C     -161.725     834.164     243.954
  O     -160.920     834.560     242.857
  C     -162.501     832.891     243.625
  O     -163.404     833.118     242.527
  C     -161.629     831.722     243.181
  O     -161.052     831.030     244.283
  C     -162.650     830.841     242.482
  O     -163.390     830.088     243.464
  C     -163.555     831.886     241.792
  N     -164.288     830.280     237.053
  C     -164.969     829.948     238.202
  N     -165.948     829.023     238.085
  N     -164.714     830.486     239.373
  C     -163.712     831.398     239.338
  C     -162.967     831.809     238.251
  C     -163.250     831.199     236.971
  O     -162.652     831.406     235.913
  N     -162.036     832.760     238.612
  C     -162.228     832.914     239.904
  N     -163.193     832.088     240.398
  O     -158.913     835.630     241.784
  O     -160.477     837.135     243.162
  H     -163.673     830.731     244.148
  H     -159.290     836.119     241.025
  H     -164.527     829.832     236.165
  H     -161.657     833.610     240.509
  H     -164.603     831.591     241.842
  H     -162.183     830.114     241.803
  H     -166.141     828.524     237.228
  H     -160.869     832.038     242.467
  H     -166.416     828.718     238.937
  H     -163.105     832.624     244.504
  H     -162.424     834.976     244.210
  H     -161.075     833.998     244.832
  P     -159.445     831.028     244.370
  C     -159.941     828.887     245.752
  O     -159.083     829.986     245.540
  O     -159.112     832.452     245.014
  O     -158.756     830.828     243.056
  H     -158.217     832.743     244.764
  H     -159.416     828.157     246.407
  H     -160.209     828.395     244.813
  H     -160.859     829.205     246.269
  H     -157.524     835.918     245.648
  H     -158.684     837.147     245.207
  H     -157.421     836.695     244.087

 3  4  5  6  7  8  9  10  11  12  23  26  30  31 0
 6-311+G(2d,p)
 ****
 33  35  36  37  38 0
 6-311+G(2d,p)
 ****
 1  2  13  14  15  16  17  18  19  20  21  22  24  25 0
 3-21G
 ****
 27  28  29  32  34  39  40  41  42  43  44  45  46  47  48  49 0
 3-21G
 ****


