%nproc=1
%NoSave
%Mem=1900MB
#P OB98/GEN NMR

erre ene a

0 1
  C      474.565     587.308     284.890
  O      473.416     587.959     284.372
  P      473.390     588.303     282.800
  C      473.122     590.845     283.326
  O      472.613     589.702     282.653
  C      472.018     591.536     284.118
  O      470.994     591.978     283.188
  C      471.326     590.656     285.165
  O      470.938     591.518     286.249
  C      470.089     590.171     284.441
  O      469.061     589.742     285.325
  C      469.740     591.400     283.612
  N      465.062     590.440     281.937
  C      465.514     590.645     283.228
  N      464.578     590.655     284.202
  N      466.772     590.829     283.537
  C      467.590     590.811     282.454
  C      467.267     590.583     281.143
  C      465.868     590.420     280.812
  O      465.415     590.321     279.670
  N      468.387     590.551     280.350
  C      469.373     590.846     281.170
  N      468.935     591.056     282.451
  O      472.350     587.231     282.216
  O      474.714     588.250     282.103
  H      469.474     589.196     286.025
  H      472.811     586.436     281.891
  H      464.077     590.327     281.758
  H      470.411     590.920     280.898
  H      469.186     592.154     284.186
  H      470.346     589.318     283.797
  H      463.585     590.547     284.033
  H      471.949     589.840     285.537
  H      464.877     590.834     285.151
  H      472.443     592.435     284.586
  H      473.522     591.544     282.581
  H      473.947     590.541     283.982
  P      472.011     591.781     287.415
  C      470.749     590.341     289.159
  O      471.247     591.621     288.818
  O      472.253     593.367     287.312
  O      473.291     591.036     287.266
  H      473.175     593.575     287.573
  H      470.629     590.292     290.249
  H      471.420     589.547     288.841
  H      469.763     590.199     288.693
  H      474.440     587.145     285.940
  H      475.427     587.920     284.724
  H      474.695     586.368     284.396

 3  4  5  6  7  8  9  10  11  12  23  26  30  31 0
 6-311+G(2d,p)
 ****
 33  35  36  37  38 0
 6-311+G(2d,p)
 ****
 1  2  13  14  15  16  17  18  19  20  21  22  24  25 0
 3-21G
 ****
 27  28  29  32  34  39  40  41  42  43  44  45  46  47  48  49 0
 3-21G
 ****


