%nproc=1
%NoSave
%Mem=1900MB
#P OB98/GEN NMR

erre ene a

0 1
  C      -46.246     661.766     529.594
  O      -45.283     662.277     530.506
  H      -47.199     661.659     530.117
  H      -45.941     660.786     529.219
  H      -46.377     662.461     528.767
  P      -43.743     662.259     530.063
  C      -43.484     660.003     531.294
  O      -42.998     661.331     531.150
  C      -42.982     659.357     532.584
  O      -43.587     658.059     532.769
  C      -41.483     659.107     532.612
  O      -40.685     660.270     532.622
  C      -41.349     658.098     533.742
  O      -41.328     658.727     535.026
  C      -42.657     657.279     533.578
  N      -42.416     655.967     532.999
  C      -41.826     655.028     533.848
  O      -41.479     655.279     535.002
  N      -41.585     653.796     533.305
  C      -41.847     653.426     532.011
  O      -41.602     652.302     531.575
  C      -42.446     654.461     531.153
  C      -42.705     655.667     531.684
  O      -43.106     663.607     529.873
  O      -43.726     661.353     528.741
  H      -40.625     659.403     535.006
  H      -42.887     661.463     528.235
  H      -41.163     653.101     533.906
  H      -42.654     654.206     530.125
  H      -43.149     656.450     531.077
  H      -43.152     657.143     534.556
  H      -40.443     657.500     533.655
  H      -41.207     658.566     531.686
  H      -43.294     659.998     533.431
  H      -43.123     659.417     530.429
  H      -44.583     660.012     531.271
  P      -39.795     660.753     531.390
  C      -37.701     659.903     532.730
  O      -38.271     660.905     531.889
  O      -40.361     661.825     530.526
  O      -39.714     659.402     530.503
  H      -39.691     659.678     529.553
  H      -36.690     660.165     532.962
  H      -37.718     658.960     532.224
  H      -38.267     659.832     533.635

 6  7  8  9  10  11  12  13  14  15  16  26  31  32  33  34  35 0
 6-311+G(2d,p)
 ****
 36  37 0
 6-311+G(2d,p)
 ****
 1  2  3  4  5  17  18  19  20  21  22  23  24  25 0
 3-21G
 ****
 27  28  29  30  38  39  40  41  42  43  44  45 0
 3-21G
 ****


