%nproc=1
%NoSave
%Mem=1900MB
#P OB98/GEN NMR

erre ene a

0 1
  C      -90.323     946.310    -286.550
  O      -90.345     947.438    -285.699
  H      -90.393     946.656    -287.585
  H      -91.181     945.664    -286.347
  H      -89.396     945.754    -286.428
  P      -90.302     947.224    -284.110
  C      -88.052     948.461    -284.066
  O      -88.738     947.260    -283.720
  C      -86.774     948.613    -283.236
  O      -87.116     948.697    -281.828
  C      -85.781     947.455    -283.402
  O      -84.464     947.966    -283.607
  C      -85.845     946.736    -282.061
  O      -84.664     945.996    -281.767
  C      -86.145     947.906    -281.122
  N      -86.621     947.459    -279.822
  C      -85.652     947.333    -278.817
  O      -84.472     947.599    -279.056
  N      -86.033     946.852    -277.592
  C      -87.268     946.487    -277.392
  N      -87.563     945.994    -276.160
  C      -88.312     946.580    -278.425
  C      -87.924     947.078    -279.605
  O      -91.045     946.026    -283.623
  O      -90.853     948.597    -283.499
  H      -84.667     945.175    -282.310
  H      -91.180     948.430    -282.583
  H      -89.318     946.257    -278.223
  H      -88.623     947.185    -280.428
  H      -85.245     948.529    -280.968
  H      -86.688     946.035    -282.056
  H      -86.038     946.789    -284.223
  H      -86.311     949.575    -283.491
  H      -86.816     945.941    -275.483
  H      -88.717     949.309    -283.902
  H      -88.481     945.662    -275.900
  H      -87.779     948.408    -285.127
  P      -83.504     947.085    -284.542
  C      -82.727     948.757    -286.368
  O      -83.579     947.677    -286.034
  O      -84.267     945.677    -284.637
  O      -82.115     946.930    -283.992
  H      -83.760     945.004    -284.138
  H      -82.891     949.039    -287.387
  H      -81.707     948.460    -286.240
  H      -82.939     949.589    -285.730

 6  7  8  9  10  11  12  13  14  15  16  26  30  31  32  33  35 0
 6-311+G(2d,p)
 ****
 37  38 0
 6-311+G(2d,p)
 ****
 1  2  3  4  5  17  18  19  20  21  22  23  24  25 0
 3-21G
 ****
 27  28  29  34  36  39  40  41  42  43  44  45  46 0
 3-21G
 ****


