%nproc=1
%NoSave
%Mem=1900MB
#P OB98/GEN NMR

erre ene a

0 1
  C       32.079    -747.464      68.371
  O       31.544    -747.061      67.122
  H       33.162    -747.607      68.293
  H       31.879    -746.682      69.107
  H       31.602    -748.392      68.700
  P       31.832    -748.037      65.880
  C       33.742    -746.448      65.125
  O       33.358    -747.778      65.446
  C       35.114    -746.139      65.716
  O       35.159    -746.544      67.103
  C       36.274    -746.859      65.050
  O       36.655    -746.238      63.824
  C       37.357    -746.710      66.111
  O       37.939    -745.398      66.022
  C       36.549    -746.835      67.416
  N       39.599    -750.274      69.705
  C       39.847    -749.036      69.208
  N       38.994    -748.185      68.604
  C       37.755    -748.716      68.543
  C       37.354    -749.963      69.007
  C       38.344    -750.766      69.602
  N       38.084    -752.031      70.087
  N       36.011    -750.156      68.778
  C       35.599    -749.051      68.199
  N       36.622    -748.151      68.027
  O       30.993    -747.372      64.686
  O       31.455    -749.466      66.086
  H       38.445    -745.257      66.848
  H       30.637    -748.084      64.119
  H       40.873    -748.681      69.318
  H       34.581    -748.852      67.889
  H       36.869    -746.100      68.154
  H       38.158    -747.437      66.010
  H       36.052    -747.923      64.903
  H       35.257    -745.049      65.680
  H       33.006    -745.748      65.539
  H       38.775    -752.471      70.674
  H       37.136    -752.387      70.010
  H       33.764    -746.339      64.038
  P       36.345    -747.032      62.460
  C       38.915    -747.093      62.100
  O       37.691    -747.826      62.111
  O       36.309    -745.861      61.370
  O       35.084    -747.828      62.464
  H       35.755    -746.137      60.613
  H       39.722    -747.750      61.853
  H       39.085    -746.668      63.067
  H       38.856    -746.311      61.372

 6  7  8  9  10  11  12  13  14  15  25  28  32  33  34  35 0
 6-311+G(2d,p)
 ****
 36  39  40 0
 6-311+G(2d,p)
 ****
 1  2  3  4  5  16  17  18  19  20  21  22  23  24 0
 3-21G
 ****
 26  27  29  30  31  37  38  41  42  43  44  45  46  47  48 0
 3-21G
 ****


