%nproc=1
%NoSave
%Mem=1900MB
#P OB98/GEN NMR

erre ene a

0 1
  C      187.812    -340.926    -242.740
  O      187.674    -342.039    -241.888
  H      188.482    -340.204    -242.262
  H      186.846    -340.441    -242.899
  H      188.244    -341.223    -243.699
  P      186.705    -343.244    -242.320
  C      188.534    -345.036    -242.141
  O      187.311    -344.552    -241.601
  C      189.262    -345.929    -241.137
  O      189.861    -345.106    -240.099
  C      188.350    -346.953    -240.443
  O      188.968    -348.241    -240.456
  C      188.262    -346.445    -239.013
  O      187.948    -347.469    -238.075
  C      189.642    -345.796    -238.855
  N      189.697    -344.902    -237.704
  C      190.270    -345.423    -236.543
  O      190.700    -346.580    -236.528
  N      190.295    -344.652    -235.411
  C      189.750    -343.476    -235.423
  N      189.782    -342.772    -234.260
  C      189.108    -342.895    -236.622
  C      189.121    -343.652    -237.718
  O      186.488    -343.373    -243.790
  O      185.349    -342.993    -241.506
  H      188.775    -347.948    -237.846
  H      184.611    -343.456    -241.965
  H      188.665    -341.911    -236.579
  H      188.673    -343.310    -238.647
  H      190.424    -346.558    -238.745
  H      187.480    -345.678    -238.948
  H      187.365    -347.028    -240.904
  H      190.093    -346.424    -241.653
  H      190.226    -343.212    -233.462
  H      189.161    -344.177    -242.413
  H      189.371    -341.859    -234.146
  H      188.310    -345.618    -243.040
  P      187.995    -349.499    -240.242
  C      188.388    -350.557    -242.577
  O      188.518    -350.697    -241.171
  O      186.630    -349.034    -240.941
  O      187.782    -349.850    -238.806
  H      185.948    -348.874    -240.265
  H      188.777    -351.429    -243.060
  H      188.934    -349.696    -242.902
  H      187.355    -350.441    -242.830

 6  7  8  9  10  11  12  13  14  15  16  26  30  31  32  33  35 0
 6-311+G(2d,p)
 ****
 37  38 0
 6-311+G(2d,p)
 ****
 1  2  3  4  5  17  18  19  20  21  22  23  24  25 0
 3-21G
 ****
 27  28  29  34  36  39  40  41  42  43  44  45  46 0
 3-21G
 ****


