%nproc=1
%NoSave
%Mem=1900MB
#P OB98/GEN NMR

erre ene a

0 1
  C       50.195      10.620     -27.168
  O       48.855      10.851     -27.592
  P       48.479      10.577     -29.125
  C       50.191       8.766     -30.014
  O       48.907       9.095     -29.532
  C       50.254       7.257     -30.301
  O       50.080       6.507     -29.080
  C       49.179       6.783     -31.274
  O       49.584       6.923     -32.624
  C       48.982       5.343     -30.846
  O       50.046       4.519     -31.357
  C       49.086       5.468     -29.308
  N       47.861       5.812     -28.553
  C       47.501       5.059     -27.438
  O       48.138       4.096     -27.018
  N       46.363       5.456     -26.787
  C       45.657       6.599     -27.020
  O       44.679       6.935     -26.366
  C       46.165       7.437     -28.111
  C       47.212       7.009     -28.821
  O       49.495      11.506     -29.936
  O       47.052      10.871     -29.472
  H       49.814       3.595     -31.162
  H       49.009      12.198     -30.422
  H       46.047       4.880     -26.021
  H       45.665       8.377     -28.301
  H       47.596       7.623     -29.632
  H       49.475       4.541     -28.871
  H       48.061       4.933     -31.252
  H       48.242       7.319     -31.092
  H       51.248       7.023     -30.703
  H       50.962       9.040     -29.289
  H       50.398       9.334     -30.927
  P       49.245       8.268     -33.424
  C       49.384      10.673     -32.544
  O       50.053       9.433     -32.670
  O       47.799       8.538     -33.668
  O       50.067       8.107     -34.792
  H       49.488       7.752     -35.505
  H       49.968      11.319     -31.882
  H       48.390      10.529     -32.113
  H       49.300      11.152     -33.523
  H       50.284      10.848     -26.126
  H       50.859      11.245     -27.728
  H       50.449       9.594     -27.332

 3  4  5  6  7  8  9  10  11  12  13  23  28  29  30  31  32 0
 6-311+G(2d,p)
 ****
 33  34 0
 6-311+G(2d,p)
 ****
 1  2  14  15  16  17  18  19  20  21  22  24  25  26  27 0
 3-21G
 ****
 35  36  37  38  39  40  41  42  43  44  45 0
 3-21G
 ****


