%nproc=1
%NoSave
%Mem=1900MB
#P OB98/GEN NMR

erre ene a

0 1
  C     -119.585      -8.378       0.200
  O     -118.922      -8.135       1.428
  P     -117.760      -7.023       1.421
  C     -115.946      -8.733       2.197
  O     -116.384      -7.814       1.210
  C     -114.646      -9.398       1.741
  O     -114.907     -10.327       0.671
  C     -113.598      -8.426       1.215
  O     -112.889      -7.832       2.286
  C     -112.746      -9.342       0.343
  O     -111.807     -10.085       1.144
  C     -113.801     -10.271      -0.272
  N     -112.834     -10.281      -5.232
  C     -112.037     -10.666      -4.171
  N     -110.823     -11.169      -4.483
  N     -112.398     -10.571      -2.919
  C     -113.632     -10.039      -2.757
  C     -114.508      -9.607      -3.725
  C     -114.117      -9.766      -5.106
  O     -114.823      -9.532      -6.083
  N     -115.658      -9.104      -3.175
  C     -115.488      -9.263      -1.878
  N     -114.286      -9.845      -1.572
  O     -117.708      -6.545       2.944
  O     -117.971      -5.890       0.467
  H     -111.472     -10.839       0.628
  H     -118.206      -5.713       3.062
  H     -112.509     -10.394      -6.176
  H     -116.212      -8.994      -1.124
  H     -113.429     -11.295      -0.392
  H     -112.158      -8.783      -0.389
  H     -110.467     -11.249      -5.422
  H     -114.069      -7.657       0.590
  H     -110.223     -11.452      -3.718
  H     -114.247      -9.970       2.588
  H     -116.712      -9.500       2.340
  H     -115.797      -8.201       3.142
  P     -111.953      -6.575       1.948
  C     -109.697      -7.494       2.842
  O     -110.472      -7.135       1.715
  O     -111.856      -5.801       3.347
  O     -112.477      -5.685       0.871
  H     -111.832      -4.839       3.187
  H     -109.010      -8.294       2.555
  H     -110.320      -7.842       3.670
  H     -109.116      -6.628       3.168
  H     -120.330      -9.134       0.340
  H     -118.875      -8.708      -0.529
  H     -120.051      -7.476      -0.138

 3  4  5  6  7  8  9  10  11  12  23  26  30  31 0
 6-311+G(2d,p)
 ****
 33  35  36  37  38 0
 6-311+G(2d,p)
 ****
 1  2  13  14  15  16  17  18  19  20  21  22  24  25 0
 3-21G
 ****
 27  28  29  32  34  39  40  41  42  43  44  45  46  47  48  49 0
 3-21G
 ****


