%nproc=1
%NoSave
%Mem=1900MB
#P OB98/GEN NMR

erre ene a

0 1
  C      -21.685    -166.490     169.106
  O      -22.892    -166.403     168.377
  P      -23.340    -165.098     167.575
  C      -23.310    -162.585     168.239
  O      -23.603    -163.917     168.639
  C      -23.279    -161.596     169.415
  O      -22.130    -161.873     170.244
  C      -23.104    -160.163     168.899
  O      -24.227    -159.427     168.460
  C      -22.251    -159.466     169.951
  O      -23.028    -158.694     170.867
  C      -21.566    -160.629     170.680
  N      -17.042    -159.091     172.384
  C      -18.269    -159.067     173.023
  N      -18.315    -158.374     174.184
  N      -19.341    -159.647     172.554
  C      -19.160    -160.218     171.336
  C      -17.992    -160.315     170.613
  C      -16.803    -159.703     171.164
  O      -15.720    -159.629     170.586
  N      -18.200    -160.897     169.387
  C      -19.496    -161.116     169.352
  N      -20.130    -160.682     170.497
  O      -24.323    -165.293     166.466
  O      -21.942    -164.644     166.904
  H      -22.422    -158.330     171.542
  H      -22.148    -164.251     166.033
  H      -16.265    -158.555     172.754
  H      -20.035    -161.549     168.515
  H      -21.746    -160.565     171.763
  H      -21.545    -158.772     169.480
  H      -17.550    -157.796     174.498
  H      -22.462    -160.225     168.012
  H      -19.226    -158.195     174.589
  H      -24.149    -161.730     170.063
  H      -24.068    -162.287     167.506
  H      -22.343    -162.560     167.725
  P      -24.209    -157.947     167.849
  C      -23.378    -155.644     168.591
  O      -23.814    -156.923     169.017
  O      -25.754    -157.610     167.586
  O      -23.422    -157.796     166.587
  H      -25.828    -156.905     166.915
  H      -22.861    -155.151     169.419
  H      -24.244    -155.039     168.306
  H      -22.694    -155.724     167.739
  H      -21.608    -167.458     169.554
  H      -21.675    -165.741     169.870
  H      -20.857    -166.336     168.445

 3  4  5  6  7  8  9  10  11  12  23  26  30  31 0
 6-311+G(2d,p)
 ****
 33  35  36  37  38 0
 6-311+G(2d,p)
 ****
 1  2  13  14  15  16  17  18  19  20  21  22  24  25 0
 3-21G
 ****
 27  28  29  32  34  39  40  41  42  43  44  45  46  47  48  49 0
 3-21G
 ****


