%nproc=1
%NoSave
%Mem=1900MB
#P OB98/GEN NMR

erre ene a

0 1
  C      -68.165     -97.944     -49.839
  O      -67.552     -98.822     -50.769
  P      -67.764     -98.635     -52.349
  C      -65.934    -100.434     -52.502
  O      -67.183     -99.977     -53.006
  C      -65.907    -101.959     -52.469
  O      -66.927    -102.414     -51.547
  C      -66.220    -102.661     -53.790
  O      -65.107    -102.801     -54.662
  C      -66.639    -104.036     -53.287
  O      -65.472    -104.811     -52.956
  C      -67.423    -103.692     -52.018
  N      -71.836    -106.279     -52.068
  C      -70.574    -106.648     -51.754
  N      -69.448    -105.905     -51.785
  C      -69.726    -104.642     -52.147
  C      -70.961    -104.116     -52.490
  C      -72.055    -104.997     -52.440
  N      -73.343    -104.611     -52.738
  N      -70.846    -102.781     -52.825
  C      -69.568    -102.508     -52.672
  N      -68.852    -103.597     -52.256
  O      -67.229     -97.359     -52.898
  O      -69.341     -98.787     -52.555
  H      -65.787    -105.654     -52.580
  H      -69.599     -98.432     -53.427
  H      -70.450    -107.682     -51.442
  H      -69.117    -101.543     -52.854
  H      -67.263    -104.419     -51.214
  H      -67.200    -104.608     -54.031
  H      -67.068    -102.191     -54.301
  H      -64.933    -102.280     -52.078
  H      -65.814    -100.050     -51.482
  H      -74.080    -105.272     -52.550
  H      -73.530    -103.625     -52.856
  H      -65.122    -100.037     -53.116
  P      -65.366    -102.538     -56.227
  C      -63.108    -103.718     -56.822
  O      -64.505    -103.648     -56.999
  O      -65.141    -101.133     -56.664
  O      -66.874    -103.036     -56.425
  H      -67.012    -103.990     -56.316
  H      -62.738    -104.630     -57.298
  H      -62.849    -103.752     -55.761
  H      -62.626    -102.857     -57.292
  H      -67.901     -98.237     -48.844
  H      -69.228     -97.989     -49.953
  H      -67.829     -96.944     -50.018

 3  4  5  6  7  8  9  10  11  12  22  25  29  30  31  32 0
 6-311+G(2d,p)
 ****
 33  36  37 0
 6-311+G(2d,p)
 ****
 1  2  13  14  15  16  17  18  19  20  21  23  24  26 0
 3-21G
 ****
 27  28  34  35  38  39  40  41  42  43  44  45  46  47  48 0
 3-21G
 ****


