%nproc=1
%NoSave
%Mem=1900MB
#P OB98/GEN NMR

erre ene a

0 1
  C        9.379      15.884      37.188
  O        8.337      15.542      36.291
  P        7.759      16.614      35.257
  C        9.442      15.903      33.372
  O        8.884      16.923      34.170
  C        9.376      16.331      31.900
  O        8.005      16.376      31.456
  C        9.986      17.715      31.691
  O       11.346      17.608      31.301
  C        9.094      18.310      30.619
  O        9.492      17.843      29.317
  C        7.714      17.724      31.001
  N        6.938      18.404      32.054
  C        5.575      18.151      32.177
  O        4.962      17.358      31.469
  N        4.921      18.873      33.144
  C        5.498      19.763      34.002
  O        4.879      20.569      34.686
  C        6.964      19.779      34.003
  C        7.604      19.130      33.032
  O        7.702      17.957      36.124
  O        6.433      16.278      34.657
  H        9.234      16.905      29.257
  H        6.799      18.114      36.457
  H        3.908      18.798      33.144
  H        7.470      20.363      34.760
  H        8.690      19.160      32.989
  H        7.065      17.646      30.121
  H        9.181      19.395      30.592
  H        9.886      18.315      32.604
  H        9.904      15.586      31.291
  H        8.893      14.967      33.523
  H       10.480      15.720      33.667
  P       12.339      18.836      31.555
  C       12.985      18.186      33.949
  O       12.283      19.104      33.136
  O       12.117      20.035      30.694
  O       13.787      18.193      31.317
  H       14.094      18.395      30.409
  H       13.020      18.575      34.969
  H       14.008      18.052      33.583
  H       12.464      17.225      33.954
  H        9.622      15.035      37.792
  H        9.059      16.689      37.816
  H       10.243      16.186      36.633

 3  4  5  6  7  8  9  10  11  12  13  23  28  29  30  31  32 0
 6-311+G(2d,p)
 ****
 33  34 0
 6-311+G(2d,p)
 ****
 1  2  14  15  16  17  18  19  20  21  22  24  25  26  27 0
 3-21G
 ****
 35  36  37  38  39  40  41  42  43  44  45 0
 3-21G
 ****


