%nproc=1
%NoSave
%Mem=1900MB
#P OB98/GEN NMR

erre ene a

0 1
  C       79.776       4.790     -92.413
  O       79.582       5.622     -93.538
  H       80.512       5.256     -91.752
  H       80.152       3.811     -92.723
  H       78.836       4.672     -91.867
  P       78.612       5.071     -94.690
  C       78.438       2.834     -96.001
  O       79.251       3.701     -95.222
  C       79.233       1.586     -96.374
  O       80.278       1.935     -97.314
  C       79.948       0.932     -95.200
  O       79.083       0.141     -94.402
  C       80.989       0.097     -95.927
  O       80.457      -1.166     -96.348
  C       81.346       0.982     -97.136
  N       82.641       1.636     -96.965
  C       83.753       0.866     -97.297
  O       83.676      -0.288     -97.714
  N       84.970       1.459     -97.099
  C       85.179       2.697     -96.563
  O       86.300       3.146     -96.360
  C       83.969       3.457     -96.214
  C       82.772       2.899     -96.423
  O       78.853       6.098     -95.893
  O       77.171       4.983     -94.309
  H       78.084       6.689     -95.981
  H       81.147      -1.577     -96.904
  H       85.787       0.920     -97.337
  H       84.098       4.443     -95.785
  H       81.865       3.434     -96.162
  H       81.386       0.381     -98.052
  H       81.841      -0.110     -95.283
  H       80.459       1.691     -94.596
  H       78.555       0.872     -96.860
  H       78.128       3.345     -96.918
  H       77.543       2.571     -95.426
  P       78.992       0.480     -92.836
  C       80.805       0.347     -90.934
  O       80.321      -0.130     -92.179
  O       77.821      -0.513     -92.388
  O       78.738       1.923     -92.564
  H       77.772      -1.297     -92.963
  H       81.695      -0.184     -90.670
  H       80.062       0.194     -90.180
  H       81.023       1.392     -91.013

 6  7  8  9  10  11  12  13  14  15  16  27  31  32  33  34  35 0
 6-311+G(2d,p)
 ****
 36  37 0
 6-311+G(2d,p)
 ****
 1  2  3  4  5  17  18  19  20  21  22  23  24  25 0
 3-21G
 ****
 26  28  29  30  38  39  40  41  42  43  44  45 0
 3-21G
 ****


