%nproc=1
%NoSave
%Mem=1900MB
#P OB98/GEN NMR

erre ene a

0 1
  C      -75.956    -349.694      15.803
  O      -74.804    -350.218      16.452
  P      -73.446    -349.380      16.512
  C      -72.530    -350.633      18.628
  O      -72.351    -350.250      17.282
  C      -71.458    -351.672      18.993
  O      -71.878    -352.988      18.582
  C      -70.124    -351.370      18.313
  O      -69.282    -350.622      19.172
  C      -69.590    -352.755      17.997
  O      -68.961    -353.324      19.158
  C      -70.890    -353.520      17.657
  N      -71.433    -353.395      16.291
  C      -70.662    -353.794      15.201
  O      -69.540    -354.282      15.303
  N      -71.224    -353.582      13.963
  C      -72.466    -353.071      13.728
  O      -72.856    -352.667      12.634
  C      -73.323    -352.928      14.907
  C      -72.773    -353.072      16.114
  O      -73.785    -348.209      17.545
  O      -72.961    -348.844      15.201
  H      -69.568    -353.182      19.908
  H      -74.017    -347.390      17.075
  H      -70.612    -353.739      13.167
  H      -74.366    -352.658      14.757
  H      -73.382    -352.935      17.004
  H      -70.781    -354.590      17.860
  H      -68.825    -352.713      17.223
  H      -70.299    -350.833      17.368
  H      -71.336    -351.687      20.086
  H      -73.529    -351.053      18.770
  H      -72.445    -349.760      19.283
  P      -68.568    -349.299      18.626
  C      -66.556    -350.076      20.017
  O      -66.993    -349.582      18.765
  O      -69.043    -348.012      19.222
  O      -68.842    -349.358      17.051
  H      -69.612    -348.796      16.822
  H      -65.517    -350.396      19.925
  H      -67.163    -350.928      20.327
  H      -66.618    -349.280      20.769
  H      -76.756    -350.401      15.871
  H      -75.731    -349.507      14.774
  H      -76.247    -348.779      16.276

 3  4  5  6  7  8  9  10  11  12  13  23  28  29  30  31  32 0
 6-311+G(2d,p)
 ****
 33  34 0
 6-311+G(2d,p)
 ****
 1  2  14  15  16  17  18  19  20  21  22  24  25  26  27 0
 3-21G
 ****
 35  36  37  38  39  40  41  42  43  44  45 0
 3-21G
 ****


