%nproc=1
%NoSave
%Mem=1900MB
#P OB98/GEN NMR

erre ene a

0 1
  C      269.673    -642.587      34.773
  O      268.652    -643.310      34.103
  P      267.105    -642.950      34.317
  C      267.218    -643.463      36.835
  O      266.649    -643.823      35.582
  C      266.232    -643.745      37.964
  O      265.087    -642.874      37.801
  C      265.653    -645.160      38.002
  O      266.467    -646.116      38.666
  C      264.388    -644.928      38.820
  O      264.721    -644.840      40.218
  C      263.916    -643.563      38.303
  N      259.146    -642.392      36.870
  C      259.854    -642.104      37.986
  N      261.115    -642.468      38.301
  C      261.666    -643.173      37.300
  C      261.074    -643.541      36.103
  C      259.750    -643.119      35.900
  N      259.040    -643.393      34.753
  N      261.948    -644.281      35.331
  C      263.053    -644.341      36.049
  N      262.933    -643.683      37.241
  O      266.264    -643.084      33.095
  O      267.125    -641.462      34.898
  H      265.188    -643.992      40.346
  H      266.238    -641.057      34.814
  H      259.334    -641.501      38.730
  H      263.955    -644.855      35.747
  H      263.486    -642.940      39.092
  H      263.656    -645.734      38.713
  H      265.372    -645.509      36.999
  H      266.713    -643.496      38.917
  H      267.442    -642.391      36.813
  H      258.146    -642.940      34.639
  H      259.537    -643.791      33.967
  H      268.154    -644.004      36.983
  P      266.997    -647.359      37.793
  C      265.124    -649.115      38.315
  O      266.446    -648.672      38.534
  O      268.461    -647.342      37.519
  O      266.098    -647.277      36.474
  H      265.153    -647.457      36.602
  H      265.005    -650.096      38.776
  H      264.914    -649.199      37.249
  H      264.415    -648.419      38.777
  H      270.629    -642.980      34.496
  H      269.541    -642.681      35.831
  H      269.619    -641.555      34.497

 3  4  5  6  7  8  9  10  11  12  22  25  29  30  31  32 0
 6-311+G(2d,p)
 ****
 33  36  37 0
 6-311+G(2d,p)
 ****
 1  2  13  14  15  16  17  18  19  20  21  23  24  26 0
 3-21G
 ****
 27  28  34  35  38  39  40  41  42  43  44  45  46  47  48 0
 3-21G
 ****


