%nproc=1
%NoSave
%Mem=1900MB
#P OB98/GEN NMR

erre ene a

0 1
  C        9.045    -893.150     589.754
  O       10.083    -893.560     588.892
  H        9.082    -893.710     590.702
  H        9.165    -892.090     589.971
  H        8.071    -893.310     589.273
  P       10.114    -895.110     588.480
  C        7.839    -895.460     587.293
  O        9.248    -895.270     587.135
  C        7.177    -895.560     585.911
  O        7.320    -894.280     585.229
  C        7.754    -896.650     584.988
  O        6.727    -897.560     584.594
  C        8.231    -895.910     583.754
  O        7.947    -896.580     582.536
  C        7.481    -894.570     583.839
  N        9.034    -892.890     579.276
  C        8.023    -893.720     579.635
  N        7.587    -894.040     580.867
  C        8.310    -893.390     581.803
  C        9.341    -892.490     581.599
  C        9.724    -892.260     580.272
  N       10.766    -891.440     579.916
  N        9.811    -892.010     582.825
  C        9.127    -892.660     583.728
  N        8.210    -893.520     583.172
  O        9.210    -895.810     589.611
  O       11.477    -895.720     588.421
  H        6.982    -896.510     582.380
  H        9.667    -896.590     589.957
  H        7.521    -894.200     578.812
  H        9.259    -892.580     584.800
  H        6.469    -894.640     583.401
  H        9.310    -895.750     583.829
  H        8.588    -897.200     585.466
  H        6.098    -895.730     586.059
  H        7.411    -894.610     587.834
  H       11.041    -891.440     578.947
  H       11.352    -891.050     580.643
  H        7.668    -896.380     587.862
  P        6.946    -899.130     584.977
  C        5.783    -899.000     587.292
  O        5.776    -899.550     585.984
  O        8.250    -899.080     585.911
  O        7.142    -900.000     583.779
  H        8.736    -899.940     585.847
  H        4.944    -899.374     587.841
  H        5.723    -897.933     587.231
  H        6.688    -899.278     587.791

 6  7  8  9  10  11  12  13  14  15  25  28  32  33  34  35 0
 6-311+G(2d,p)
 ****
 36  39  40 0
 6-311+G(2d,p)
 ****
 1  2  3  4  5  16  17  18  19  20  21  22  23  24 0
 3-21G
 ****
 26  27  29  30  31  37  38  41  42  43  44  45  46  47  48 0
 3-21G
 ****


