%nproc=1
%NoSave
%Mem=1900MB
#P OB98/GEN NMR

erre ene a

0 1
  C      370.813      81.840     310.253
  O      369.776      81.372     311.094
  H      371.619      82.230     310.879
  H      370.446      82.648     309.616
  H      371.211      81.029     309.636
  P      368.507      80.653     310.427
  C      367.496      83.006     310.204
  O      367.266      81.662     310.595
  C      367.085      83.968     311.319
  O      365.663      83.810     311.573
  C      367.827      83.730     312.639
  O      368.085      84.996     313.247
  C      366.823      82.959     313.473
  O      367.029      83.139     314.876
  C      365.496      83.526     312.975
  N      360.665      83.143     314.402
  C      361.452      84.261     314.216
  N      360.883      85.456     314.473
  N      362.697      84.211     313.818
  C      363.137      82.950     313.585
  C      362.455      81.766     313.730
  C      361.083      81.834     314.188
  O      360.341      80.875     314.379
  N      363.255      80.692     313.420
  C      364.416      81.230     313.091
  N      364.398      82.595     313.184
  O      368.237      79.260     310.898
  O      368.811      80.702     308.858
  H      367.914      82.768     315.085
  H      369.152      79.843     308.546
  H      359.716      83.238     314.719
  H      365.294      80.676     312.788
  H      365.222      84.460     313.489
  H      366.899      81.887     313.250
  H      359.924      85.574     314.769
  H      368.765      83.181     312.510
  H      361.435      86.294     314.322
  H      367.231      84.995     310.966
  H      366.902      83.214     309.305
  H      368.557      83.142     309.964
  P      369.232      85.931     312.629
  C      370.726      85.526     314.689
  O      370.124      86.497     313.839
  O      368.769      86.957     311.642
  O      370.218      84.867     311.937
  H      370.648      85.293     311.171
  H      371.291      86.021     315.452
  H      371.376      84.901     314.113
  H      369.964      84.927     315.142

 6  7  8  9  10  11  12  13  14  15  26  29  33  34 0
 6-311+G(2d,p)
 ****
 36  38  39  40  41 0
 6-311+G(2d,p)
 ****
 1  2  3  4  5  16  17  18  19  20  21  22  23  24  25 0
 3-21G
 ****
 27  28  30  31  32  35  37  42  43  44  45  46  47 0
 3-21G
 ****
 48  49 0
 3-21G
 ****


