%nproc=1
%NoSave
%Mem=1900MB
#P OB98/GEN NMR

erre ene a

0 1
  C     -187.700      13.285     -23.059
  O     -186.723      12.317     -23.374
  H     -188.674      12.920     -23.397
  H     -187.474      14.219     -23.582
  H     -187.749      13.469     -21.983
  P     -185.313      12.374     -22.621
  C     -184.258      12.829     -24.931
  O     -184.165      12.105     -23.710
  C     -182.886      13.296     -25.423
  O     -182.320      14.245     -24.493
  C     -181.882      12.147     -25.519
  O     -181.935      11.393     -26.716
  C     -180.552      12.886     -25.396
  O     -180.119      13.378     -26.675
  C     -180.896      14.048     -24.461
  N     -177.219      14.674     -20.969
  C     -177.211      15.011     -22.308
  N     -176.059      15.525     -22.788
  N     -178.238      14.838     -23.100
  C     -179.287      14.225     -22.503
  C     -179.406      13.833     -21.190
  C     -178.283      14.078     -20.307
  O     -178.235      13.792     -19.115
  N     -180.624      13.245     -20.947
  C     -181.210      13.216     -22.127
  N     -180.449      13.823     -23.098
  O     -185.293      11.022     -21.757
  O     -185.100      13.574     -21.748
  H     -180.770      14.032     -26.987
  H     -184.720      11.135     -20.978
  H     -176.411      14.854     -20.400
  H     -182.189      12.794     -22.327
  H     -180.435      14.985     -24.801
  H     -179.759      12.231     -25.024
  H     -175.209      15.568     -22.247
  H     -181.984      11.479     -24.658
  H     -175.926      15.535     -23.801
  H     -183.004      13.812     -26.383
  H     -184.898      13.692     -24.737
  H     -184.752      12.223     -25.695
  P     -182.337       9.845     -26.671
  C     -179.976       9.153     -27.518
  O     -181.374       9.081     -27.699
  O     -183.762       9.828     -27.400
  O     -182.405       9.252     -25.306
  H     -184.479       9.849     -26.739
  H     -179.487       8.591     -28.286
  H     -179.719       8.748     -26.562
  H     -179.662      10.175     -27.569

 6  7  8  9  10  11  12  13  14  15  26  29  33  34 0
 6-311+G(2d,p)
 ****
 36  38  39  40  41 0
 6-311+G(2d,p)
 ****
 1  2  3  4  5  16  17  18  19  20  21  22  23  24  25 0
 3-21G
 ****
 27  28  30  31  32  35  37  42  43  44  45  46  47 0
 3-21G
 ****
 48  49 0
 3-21G
 ****


