%nproc=1
%NoSave
%Mem=1900MB
#P OB98/GEN NMR

erre ene a

0 1
  C     -238.555    -113.126    -606.400
  O     -237.631    -113.351    -607.451
  H     -238.238    -113.698    -605.524
  H     -239.548    -113.466    -606.702
  H     -238.592    -112.066    -606.132
  P     -237.692    -112.416    -608.751
  C     -235.384    -111.476    -608.081
  O     -236.712    -111.170    -608.452
  C     -234.721    -110.277    -607.373
  O     -235.359    -110.092    -606.080
  C     -233.215    -110.455    -607.115
  O     -232.614    -109.159    -607.167
  C     -233.208    -110.994    -605.694
  O     -231.935    -110.864    -605.098
  C     -234.336    -110.170    -605.077
  N     -234.835    -110.753    -603.828
  C     -234.979    -109.875    -602.754
  O     -234.663    -108.687    -602.807
  N     -235.428    -110.429    -601.572
  C     -235.697    -111.753    -601.377
  O     -236.072    -112.198    -600.296
  C     -235.491    -112.630    -602.529
  C     -235.080    -112.099    -603.693
  O     -239.059    -112.047    -609.224
  O     -236.875    -113.236    -609.860
  H     -231.966    -111.172    -604.166
  H     -237.229    -113.028    -610.758
  H     -235.544    -109.813    -600.792
  H     -235.685    -113.695    -602.399
  H     -234.925    -112.727    -604.570
  H     -233.996    -109.153    -604.857
  H     -233.462    -112.065    -605.689
  H     -232.732    -111.126    -607.828
  H     -234.917    -109.382    -607.961
  H     -234.820    -111.721    -608.985
  H     -235.369    -112.344    -607.412
  P     -232.033    -108.528    -608.522
  C     -233.563    -106.461    -608.474
  O     -233.170    -107.625    -609.202
  O     -231.417    -109.530    -609.455
  O     -230.938    -107.457    -608.044
  H     -230.256    -107.353    -608.725
  H     -234.322    -105.939    -609.019
  H     -232.716    -105.821    -608.340
  H     -233.946    -106.751    -607.518

 6  7  8  9  10  11  12  13  14  15  16  26  31  32  33  34  35 0
 6-311+G(2d,p)
 ****
 36  37 0
 6-311+G(2d,p)
 ****
 1  2  3  4  5  17  18  19  20  21  22  23  24  25 0
 3-21G
 ****
 27  28  29  30  38  39  40  41  42  43  44  45 0
 3-21G
 ****


