%nproc=1
%NoSave
%Mem=1900MB
#P OB98/GEN NMR

erre ene a

0 1
  C      -14.434     577.885     526.615
  O      -15.342     576.805     526.384
  P      -15.245     575.572     527.414
  C      -16.391     574.879     529.640
  O      -16.218     575.887     528.657
  C      -17.244     575.393     530.805
  O      -16.642     576.526     531.462
  C      -18.629     575.850     530.378
  O      -19.482     574.730     530.210
  C      -19.039     576.747     531.544
  O      -19.589     575.969     532.632
  C      -17.701     577.383     531.962
  N      -15.533     581.858     532.958
  C      -15.654     580.735     533.760
  N      -15.096     580.809     534.984
  N      -16.265     579.647     533.379
  C      -16.775     579.720     532.125
  C      -16.697     580.760     531.236
  C      -16.015     581.962     531.665
  O      -15.873     582.981     530.989
  N      -17.277     580.443     530.035
  C      -17.820     579.253     530.254
  N      -17.486     578.744     531.481
  O      -13.775     575.714     528.024
  O      -15.452     574.237     526.766
  H      -20.482     575.672     532.388
  H      -13.208     574.983     527.706
  H      -15.058     582.680     533.309
  H      -18.430     578.708     529.541
  H      -17.600     577.423     533.057
  H      -19.816     577.464     531.260
  H      -14.605     581.615     535.339
  H      -18.565     576.442     529.448
  H      -15.167     579.992     535.578
  H      -17.332     574.577     531.535
  H      -15.420     574.549     530.014
  H      -16.859     574.003     529.170
  P      -20.384     574.659     528.883
  C      -19.945     574.142     526.370
  O      -19.445     574.121     527.700
  O      -20.610     576.210     528.520
  O      -21.682     573.943     529.047
  H      -21.543     576.346     528.270
  H      -19.107     574.261     525.679
  H      -20.652     574.961     526.219
  H      -20.444     573.188     526.163
  H      -14.586     578.643     525.876
  H      -13.428     577.525     526.554
  H      -14.608     578.295     527.588

 3  4  5  6  7  8  9  10  11  12  23  26  30  31 0
 6-311+G(2d,p)
 ****
 33  35  36  37  38 0
 6-311+G(2d,p)
 ****
 1  2  13  14  15  16  17  18  19  20  21  22  24  25 0
 3-21G
 ****
 27  28  29  32  34  39  40  41  42  43  44  45  46  47  48  49 0
 3-21G
 ****


