%nproc=1
%NoSave
%Mem=1900MB
#P OB98/GEN NMR

erre ene a

0 1
  C     -317.394     127.174    -264.509
  O     -316.393     126.879    -265.481
  P     -314.922     126.356    -265.144
  C     -313.959     128.786    -265.353
  O     -313.870     127.415    -265.716
  C     -312.716     129.605    -265.765
  O     -311.541     129.025    -265.156
  C     -312.511     129.534    -267.276
  O     -313.219     130.405    -268.139
  C     -310.998     129.589    -267.461
  O     -310.514     130.915    -267.691
  C     -310.463     129.049    -266.126
  N     -306.705     126.187    -268.084
  C     -306.978     127.524    -268.299
  N     -306.196     128.173    -269.174
  N     -307.959     128.160    -267.710
  C     -308.722     127.373    -266.915
  C     -308.558     126.030    -266.646
  C     -307.440     125.347    -267.260
  O     -307.136     124.168    -267.097
  N     -309.549     125.562    -265.810
  C     -310.318     126.602    -265.599
  N     -309.856     127.737    -266.242
  O     -314.668     124.917    -265.442
  O     -314.819     126.549    -263.541
  H     -309.549     130.864    -267.798
  H     -314.241     125.825    -263.209
  H     -305.918     125.751    -268.545
  H     -311.211     126.600    -264.991
  H     -309.690     129.707    -265.710
  H     -310.689     128.990    -268.325
  H     -305.505     127.719    -269.758
  H     -312.802     128.530    -267.596
  H     -306.532     129.095    -269.498
  H     -312.785     130.626    -265.387
  H     -314.098     128.819    -264.266
  H     -314.858     129.234    -265.799
  P     -314.639     130.115    -268.815
  C     -313.607     129.181    -270.966
  O     -314.455     130.168    -270.405
  O     -315.488     131.444    -268.520
  O     -315.350     128.904    -268.303
  H     -316.439     131.276    -268.657
  H     -313.311     129.496    -271.973
  H     -314.145     128.229    -271.029
  H     -312.702     129.048    -270.362
  H     -318.284     127.505    -265.003
  H     -317.041     127.944    -263.856
  H     -317.608     126.294    -263.939

 3  4  5  6  7  8  9  10  11  12  23  26  30  31 0
 6-311+G(2d,p)
 ****
 33  35  36  37  38 0
 6-311+G(2d,p)
 ****
 1  2  13  14  15  16  17  18  19  20  21  22  24  25 0
 3-21G
 ****
 27  28  29  32  34  39  40  41  42  43  44  45  46  47  48  49 0
 3-21G
 ****


