%nproc=1
%NoSave
%Mem=1900MB
#P OB98/GEN NMR

erre ene a

0 1
  C       92.037     273.132     193.921
  O       90.800     273.393     194.600
  P       89.369     273.072     193.957
  C       88.409     271.538     195.797
  O       88.873     271.631     194.452
  C       87.616     270.250     196.035
  O       86.412     270.242     195.247
  C       88.352     268.970     195.659
  O       89.329     268.634     196.635
  C       87.192     267.983     195.556
  O       86.815     267.488     196.849
  C       86.076     268.871     194.962
  N       85.890     268.652     193.534
  C       85.223     267.477     193.166
  O       84.886     266.658     194.017
  N       84.991     267.248     191.828
  C       85.442     268.078     190.943
  N       85.169     267.804     189.639
  C       86.223     269.282     191.283
  C       86.403     269.503     192.587
  O       89.317     273.257     192.474
  O       88.354     274.082     194.674
  H       86.272     266.691     196.690
  H       87.635     274.306     194.056
  H       86.602     269.934     190.513
  H       86.956     270.372     192.927
  H       85.126     268.680     195.476
  H       87.432     267.116     194.935
  H       88.823     269.084     194.675
  H       87.326     270.230     197.095
  H       84.628     266.975     189.437
  H       87.765     272.402     195.998
  H       85.473     268.385     188.870
  H       89.271     271.585     196.470
  P       90.848     268.407     196.188
  C       91.783     269.719     198.192
  O       91.710     269.623     196.782
  O       91.061     268.122     194.741
  O       91.325     267.170     197.090
  H       91.990     266.654     196.593
  H       92.674     270.290     198.457
  H       91.838     268.729     198.653
  H       90.897     270.246     198.561
  H       92.855     273.427     194.544
  H       92.066     273.688     193.007
  H       92.112     272.087     193.705

 3  4  5  6  7  8  9  10  11  12  13  23  27  28  29  30  32 0
 6-311+G(2d,p)
 ****
 34  35 0
 6-311+G(2d,p)
 ****
 1  2  14  15  16  17  18  19  20  21  22  24  25  26 0
 3-21G
 ****
 31  33  36  37  38  39  40  41  42  43  44  45  46 0
 3-21G
 ****


