%nproc=1
%NoSave
%Mem=1900MB
#P OB98/GEN NMR

erre ene a

0 1
  C       88.353      39.557       9.279
  O       89.429      38.747       8.853
  P       89.214      37.200       8.505
  C       90.160      36.437      10.762
  O       89.043      36.400       9.884
  C       91.452      36.068      10.035
  O       92.555      36.082      10.979
  C       91.423      34.687       9.367
  O       92.135      34.799       8.130
  C       92.189      33.817      10.346
  O       92.718      32.649       9.734
  C       93.232      34.816      10.859
  N       93.820      34.405      12.125
  C       95.212      34.301      12.171
  O       95.876      34.424      11.141
  N       95.810      34.047      13.380
  C       95.075      33.735      14.403
  N       95.703      33.556      15.597
  C       93.608      33.591      14.323
  C       93.048      33.979      13.180
  O       90.221      36.615       7.571
  O       87.744      37.141       7.870
  H       87.789      36.691       7.004
  H       93.272      32.172      10.387
  H       93.052      33.206      15.164
  H       91.975      33.938      13.032
  H       94.035      34.946      10.123
  H       91.524      33.505      11.159
  H       90.408      34.332       9.169
  H       91.656      36.843       9.287
  H       96.704      33.703      15.622
  H       89.984      35.718      11.565
  H       95.208      33.628      16.484
  H       90.243      37.431      11.216
  P       91.990      33.612       7.057
  C       94.279      32.609       7.753
  O       92.900      32.389       7.551
  O       92.845      34.187       5.824
  O       90.605      33.287       6.605
  H       92.525      33.778       4.998
  H       94.749      31.659       8.020
  H       94.436      33.317       8.571
  H       94.748      32.987       6.840
  H       88.705      40.551       9.459
  H       87.940      39.156      10.181
  H       87.599      39.577       8.520

 3  4  5  6  7  8  9  10  11  12  13  24  27  28  29  30  32 0
 6-311+G(2d,p)
 ****
 34  35 0
 6-311+G(2d,p)
 ****
 1  2  14  15  16  17  18  19  20  21  22  23  25  26 0
 3-21G
 ****
 31  33  36  37  38  39  40  41  42  43  44  45  46 0
 3-21G
 ****


