%nproc=1
%NoSave
%Mem=1900MB
#P OB98/GEN NMR

erre ene a

0 1
  C      -45.484    -150.697     214.779
  O      -45.812    -149.652     213.863
  P      -44.840    -148.378     213.755
  C      -45.035    -148.369     211.188
  O      -45.153    -147.602     212.382
  C      -45.912    -147.820     210.050
  O      -47.313    -148.144     210.275
  C      -45.820    -146.295     209.860
  O      -45.928    -146.037     208.458
  C      -47.058    -145.801     210.588
  O      -47.425    -144.484     210.212
  C      -48.055    -146.906     210.216
  N      -49.218    -146.929     211.093
  C      -50.319    -146.165     210.712
  O      -50.251    -145.427     209.730
  N      -51.467    -146.237     211.478
  C      -51.446    -146.888     212.602
  N      -52.598    -146.956     213.322
  C      -50.236    -147.566     213.123
  C      -49.177    -147.565     212.312
  O      -43.393    -148.655     214.002
  O      -45.429    -147.378     214.866
  H      -47.668    -144.480     209.258
  H      -44.695    -146.880     215.262
  H      -50.238    -148.026     214.098
  H      -48.247    -148.034     212.601
  H      -48.408    -146.784     209.181
  H      -46.874    -145.802     211.673
  H      -44.886    -145.864     210.232
  H      -45.606    -148.324     209.118
  H      -53.417    -146.473     212.963
  H      -45.318    -149.403     211.393
  H      -52.677    -147.491     214.179
  H      -43.977    -148.404     210.889
  P      -44.792    -145.150     207.737
  C      -44.243    -146.924     205.912
  O      -44.694    -145.618     206.206
  O      -43.443    -145.783     208.356
  O      -44.841    -143.678     208.001
  H      -42.739    -145.109     208.323
  H      -44.498    -147.163     204.875
  H      -44.712    -147.667     206.565
  H      -43.151    -146.972     206.019
  H      -46.228    -151.464     214.727
  H      -45.448    -150.302     215.773
  H      -44.530    -151.108     214.524

 3  4  5  6  7  8  9  10  11  12  13  23  27  28  29  30  32 0
 6-311+G(2d,p)
 ****
 34  35 0
 6-311+G(2d,p)
 ****
 1  2  14  15  16  17  18  19  20  21  22  24  25  26 0
 3-21G
 ****
 31  33  36  37  38  39  40  41  42  43  44  45  46 0
 3-21G
 ****


