%nproc=1
%NoSave
%Mem=1900MB
#P OB98/GEN NMR

erre ene a

0 1
  C      614.307     378.061    -183.342
  O      613.755     378.782    -184.425
  H      614.404     377.013    -183.633
  H      613.639     378.122    -182.477
  H      615.293     378.453    -183.083
  P      613.604     380.373    -184.239
  C      616.099     381.005    -184.564
  O      614.787     381.044    -185.103
  C      617.145     381.103    -185.682
  O      617.099     379.867    -186.467
  C      616.939     382.273    -186.646
  O      618.226     382.750    -187.055
  C      616.275     381.609    -187.850
  O      616.420     382.375    -189.049
  C      617.005     380.267    -187.854
  N      616.574     378.395    -192.513
  C      617.410     379.378    -192.010
  N      618.267     379.950    -192.882
  N      617.405     379.771    -190.761
  C      616.529     379.081    -189.992
  C      615.637     378.092    -190.365
  C      615.632     377.703    -191.755
  O      614.902     376.847    -192.265
  N      614.889     377.676    -189.291
  C      615.322     378.404    -188.273
  N      616.314     379.269    -188.650
  O      614.074     380.591    -182.720
  O      612.239     380.919    -184.491
  H      615.913     383.207    -188.928
  H      613.302     380.582    -182.123
  H      616.605     378.143    -193.485
  H      614.951     378.344    -187.260
  H      618.023     380.348    -188.257
  H      615.204     381.473    -187.661
  H      618.355     379.676    -193.850
  H      616.350     383.105    -186.237
  H      618.917     380.640    -192.528
  H      618.139     381.137    -185.224
  H      616.238     380.065    -184.019
  H      616.225     381.843    -183.868
  P      618.378     384.303    -187.426
  C      620.970     384.068    -187.363
  O      619.824     384.519    -188.084
  O      618.528     384.988    -185.990
  O      617.225     384.864    -188.197
  H      618.194     385.912    -186.022
  H      621.853     384.281    -187.928
  H      620.897     383.013    -187.201
  H      621.019     384.571    -186.420

 6  7  8  9  10  11  12  13  14  15  26  29  33  34 0
 6-311+G(2d,p)
 ****
 36  38  39  40  41 0
 6-311+G(2d,p)
 ****
 1  2  3  4  5  16  17  18  19  20  21  22  23  24  25 0
 3-21G
 ****
 27  28  30  31  32  35  37  42  43  44  45  46  47 0
 3-21G
 ****
 48  49 0
 3-21G
 ****


