%nproc=1
%NoSave
%Mem=1900MB
#P OB98/GEN NMR

erre ene a

0 1
  C       64.881    -133.696    -189.860
  O       64.250    -134.784    -190.508
  H       65.741    -133.385    -190.458
  H       65.233    -133.991    -188.868
  H       64.191    -132.852    -189.775
  P       62.977    -135.457    -189.807
  C       64.339    -137.309    -188.629
  O       63.522    -136.155    -188.470
  C       64.028    -138.336    -187.543
  O       64.968    -138.222    -186.457
  C       62.638    -138.191    -186.925
  O       61.657    -138.796    -187.749
  C       62.839    -138.932    -185.615
  O       62.816    -140.353    -185.855
  C       64.260    -138.490    -185.217
  N       65.885    -136.580    -180.805
  C       65.892    -137.883    -181.261
  N       66.374    -138.814    -180.409
  N       65.457    -138.243    -182.439
  C       64.939    -137.219    -183.157
  C       64.860    -135.890    -182.806
  C       65.409    -135.493    -181.523
  O       65.444    -134.344    -181.092
  N       64.186    -135.157    -183.751
  C       63.907    -136.035    -184.697
  N       64.335    -137.304    -184.380
  O       62.151    -136.360    -190.671
  O       62.132    -134.216    -189.251
  H       61.899    -140.591    -186.085
  H       61.466    -133.925    -189.901
  H       66.226    -136.363    -179.883
  H       63.402    -135.806    -185.628
  H       64.806    -139.283    -184.691
  H       62.061    -138.716    -184.880
  H       66.582    -138.622    -179.440
  H       62.401    -137.142    -186.707
  H       66.332    -139.783    -180.704
  H       64.158    -139.335    -187.978
  H       65.383    -136.985    -188.559
  H       64.180    -137.757    -189.615
  P       60.107    -138.380    -187.657
  C       59.598    -140.235    -185.927
  O       59.628    -138.844    -186.198
  O       59.259    -138.875    -188.777
  O       60.131    -136.790    -187.506
  H       60.185    -136.322    -188.377
  H       59.262    -140.396    -184.924
  H       60.581    -140.642    -186.043
  H       58.929    -140.717    -186.609

 6  7  8  9  10  11  12  13  14  15  26  29  33  34 0
 6-311+G(2d,p)
 ****
 36  38  39  40  41 0
 6-311+G(2d,p)
 ****
 1  2  3  4  5  16  17  18  19  20  21  22  23  24  25 0
 3-21G
 ****
 27  28  30  31  32  35  37  42  43  44  45  46  47 0
 3-21G
 ****
 48  49 0
 3-21G
 ****


