%nproc=1
%NoSave
%Mem=1900MB
#P OB98/GEN NMR

erre ene a

0 1
  C     -362.690    -506.688     213.488
  O     -361.293    -506.690     213.283
  H     -363.007    -505.675     213.733
  H     -362.960    -507.352     214.319
  H     -363.207    -507.004     212.577
  P     -360.557    -508.082     212.970
  C     -358.092    -508.264     213.721
  O     -359.008    -507.750     212.757
  C     -356.809    -507.430     213.741
  O     -356.298    -507.381     212.386
  C     -357.057    -505.983     214.209
  O     -356.200    -505.582     215.277
  C     -356.998    -505.177     212.911
  O     -356.617    -503.823     213.075
  C     -356.046    -506.000     212.034
  N     -356.230    -505.795     210.605
  C     -355.442    -504.819     209.992
  O     -354.592    -504.136     210.561
  N     -355.658    -504.644     208.645
  C     -356.560    -505.322     207.877
  O     -356.702    -505.119     206.680
  C     -357.379    -506.324     208.586
  C     -357.182    -506.511     209.891
  O     -361.175    -508.912     211.890
  O     -360.572    -508.854     214.381
  H     -357.389    -503.335     213.420
  H     -361.267    -509.533     214.372
  H     -355.095    -503.938     208.192
  H     -358.109    -506.870     208.009
  H     -357.761    -507.241     210.437
  H     -355.004    -505.776     212.269
  H     -357.994    -505.173     212.461
  H     -358.063    -505.870     214.647
  H     -356.070    -507.935     214.365
  H     -357.872    -509.302     213.451
  H     -358.563    -508.239     214.716
  P     -356.669    -504.797     216.587
  C     -355.125    -502.823     217.363
  O     -355.361    -504.219     217.322
  O     -357.675    -505.509     217.434
  O     -357.385    -503.474     215.979
  H     -358.103    -503.249     216.604
  H     -354.214    -502.631     217.890
  H     -355.936    -502.339     217.865
  H     -355.047    -502.445     216.365

 6  7  8  9  10  11  12  13  14  15  16  26  31  32  33  34  35 0
 6-311+G(2d,p)
 ****
 36  37 0
 6-311+G(2d,p)
 ****
 1  2  3  4  5  17  18  19  20  21  22  23  24  25 0
 3-21G
 ****
 27  28  29  30  38  39  40  41  42  43  44  45 0
 3-21G
 ****


