%nproc=1
%NoSave
%Mem=1900MB
#P OB98/GEN NMR

erre ene a

0 1
  C     -338.207    -399.809     290.119
  O     -339.036    -398.992     290.920
  H     -337.162    -399.560     290.325
  H     -338.411    -399.633     289.059
  H     -338.376    -400.865     290.356
  P     -340.622    -399.195     290.762
  C     -341.301    -396.800     291.494
  O     -341.310    -398.180     291.808
  C     -341.616    -395.969     292.739
  O     -343.064    -395.909     292.918
  C     -341.017    -396.539     294.038
  O     -340.588    -395.453     294.871
  C     -342.205    -397.219     294.695
  O     -342.044    -397.361     296.106
  C     -343.337    -396.282     294.284
  N     -348.244    -395.313     294.853
  C     -347.178    -394.451     294.698
  N     -347.451    -393.129     294.701
  N     -345.931    -394.854     294.560
  C     -345.812    -396.207     294.551
  C     -346.788    -397.166     294.702
  C     -348.152    -396.705     294.885
  O     -349.143    -397.412     295.042
  N     -346.257    -398.427     294.672
  C     -344.954    -398.238     294.492
  N     -344.640    -396.902     294.414
  O     -340.876    -400.638     291.413
  O     -341.150    -399.108     289.367
  H     -341.322    -398.001     296.267
  H     -341.639    -401.076     290.992
  H     -349.175    -394.948     294.972
  H     -344.206    -399.014     294.433
  H     -343.361    -395.366     294.890
  H     -342.352    -398.222     294.265
  H     -348.371    -392.746     294.775
  H     -340.184    -397.226     293.874
  H     -346.676    -392.477     294.585
  H     -341.279    -394.933     292.573
  H     -342.054    -396.599     290.725
  H     -340.314    -396.522     291.112
  P     -339.016    -395.313     295.152
  C     -339.047    -394.490     297.623
  O     -338.789    -394.166     296.255
  O     -338.465    -394.641     293.803
  O     -338.328    -396.617     295.425
  H     -337.963    -395.292     293.295
  H     -338.853    -393.634     298.235
  H     -338.411    -395.296     297.925
  H     -340.070    -394.783     297.733

 6  7  8  9  10  11  12  13  14  15  26  29  33  34 0
 6-311+G(2d,p)
 ****
 36  38  39  40  41 0
 6-311+G(2d,p)
 ****
 1  2  3  4  5  16  17  18  19  20  21  22  23  24  25 0
 3-21G
 ****
 27  28  30  31  32  35  37  42  43  44  45  46  47 0
 3-21G
 ****
 48  49 0
 3-21G
 ****


