%nproc=1
%NoSave
%Mem=1900MB
#P OB98/GEN NMR

erre ene a

0 1
  C     -144.423     454.992       6.226
  O     -145.610     455.100       6.982
  H     -143.648     454.542       6.852
  H     -144.086     455.984       5.915
  H     -144.581     454.359       5.350
  P     -146.933     455.592       6.215
  C     -146.763     458.173       6.445
  O     -146.598     457.040       5.605
  C     -146.953     459.438       5.604
  O     -145.712     459.734       4.918
  C     -148.059     459.311       4.549
  O     -148.751     460.559       4.459
  C     -147.295     459.066       3.259
  O     -148.026     459.471       2.100
  C     -146.001     459.853       3.509
  N     -144.902     459.351       2.687
  C     -145.167     459.182       1.324
  O     -146.284     459.442       0.870
  N     -144.183     458.670       0.517
  C     -143.064     458.277       1.041
  N     -142.140     457.752       0.191
  C     -142.767     458.375       2.483
  C     -143.717     458.923       3.238
  O     -147.948     455.922       7.405
  O     -147.499     454.623       5.235
  H     -148.281     460.413       2.213
  H     -148.871     455.752       7.139
  H     -141.825     458.010       2.875
  H     -143.591     459.031       4.309
  H     -146.148     460.917       3.291
  H     -147.074     457.996       3.160
  H     -148.773     458.511       4.762
  H     -147.156     460.277       6.280
  H     -142.386     457.686      -0.789
  H     -145.869     458.292       7.064
  H     -141.253     457.372       0.493
  H     -147.627     458.017       7.100
  P     -150.311     460.546       4.845
  C     -151.180     461.029       2.445
  O     -151.144     460.126       3.543
  O     -150.654     462.097       5.034
  O     -150.613     459.758       6.077
  H     -150.791     462.296       5.980
  H     -151.771     460.610       1.658
  H     -150.185     461.200       2.091
  H     -151.611     461.956       2.760

 6  7  8  9  10  11  12  13  14  15  16  26  30  31  32  33  35 0
 6-311+G(2d,p)
 ****
 37  38 0
 6-311+G(2d,p)
 ****
 1  2  3  4  5  17  18  19  20  21  22  23  24  25 0
 3-21G
 ****
 27  28  29  34  36  39  40  41  42  43  44  45  46 0
 3-21G
 ****


