%nproc=1
%NoSave
%Mem=1900MB
#P OB98/GEN NMR

erre ene a

0 1
  C      -30.321     125.951    -211.400
  O      -29.599     125.036    -212.229
  P      -28.000     125.048    -212.088
  C      -26.035     125.987    -213.507
  O      -27.410     126.091    -213.161
  C      -25.578     127.267    -214.223
  O      -26.118     127.345    -215.562
  C      -26.034     128.546    -213.531
  O      -25.266     128.797    -212.364
  C      -25.845     129.563    -214.652
  O      -24.461     129.939    -214.762
  C      -26.255     128.752    -215.893
  N      -29.187     131.233    -219.284
  C      -27.843     131.180    -219.114
  N      -27.142     130.494    -218.187
  C      -27.968     129.803    -217.379
  C      -29.351     129.757    -217.431
  C      -29.970     130.521    -218.438
  N      -31.341     130.583    -218.599
  N      -29.849     128.941    -216.436
  C      -28.788     128.519    -215.778
  N      -27.621     129.007    -216.317
  O      -27.568     123.619    -212.676
  O      -27.520     125.237    -210.686
  H      -24.365     130.472    -215.578
  H      -27.266     123.039    -211.950
  H      -27.259     131.762    -219.819
  H      -28.807     127.868    -214.913
  H      -25.606     128.951    -216.755
  H      -26.427     130.478    -214.506
  H      -27.100     128.472    -213.267
  H      -24.479     127.251    -214.285
  H      -25.867     125.124    -214.153
  H      -31.706     131.214    -219.296
  H      -31.939     130.128    -217.925
  H      -25.452     125.818    -212.596
  P      -26.056     129.091    -210.997
  C      -27.481     131.069    -210.180
  O      -26.779     130.502    -211.274
  O      -24.859     129.498    -210.020
  O      -26.942     127.991    -210.527
  H      -24.237     130.122    -210.442
  H      -27.891     132.035    -210.497
  H      -26.802     131.228    -209.337
  H      -28.303     130.413    -209.884
  H      -31.370     125.848    -211.585
  H      -30.016     126.952    -211.624
  H      -30.117     125.737    -210.372

 3  4  5  6  7  8  9  10  11  12  22  25  29  30  31  32 0
 6-311+G(2d,p)
 ****
 33  36  37 0
 6-311+G(2d,p)
 ****
 1  2  13  14  15  16  17  18  19  20  21  23  24  26 0
 3-21G
 ****
 27  28  34  35  38  39  40  41  42  43  44  45  46  47  48 0
 3-21G
 ****


