%nproc=1
%NoSave
%Mem=1900MB
#P OB98/GEN NMR

erre ene a

0 1
  C      255.678     395.823      78.224
  O      254.385     395.930      77.666
  H      255.682     394.997      78.940
  H      255.943     396.745      78.747
  H      256.411     395.615      77.440
  P      254.143     397.127      76.626
  C      252.392     398.174      78.235
  O      252.676     397.705      76.924
  C      251.279     399.218      78.179
  O      251.689     400.327      77.350
  C      249.984     398.707      77.559
  O      249.227     397.925      78.465
  C      249.304     400.018      77.201
  O      248.604     400.572      78.325
  C      250.494     400.912      76.793
  N      250.588     401.077      75.343
  C      250.293     402.346      74.863
  O      249.968     403.286      75.589
  N      250.340     402.496      73.502
  C      250.613     401.513      72.597
  O      250.571     401.693      71.387
  C      250.934     400.192      73.167
  C      250.895     400.032      74.492
  O      253.973     396.362      75.229
  O      255.223     398.154      76.579
  H      254.791     396.439      74.706
  H      248.176     399.819      78.779
  H      250.120     403.411      73.135
  H      251.160     399.389      72.478
  H      251.107     399.066      74.937
  H      250.394     401.908      77.239
  H      248.568     399.884      76.406
  H      250.197     398.155      76.638
  H      251.100     399.591      79.196
  H      253.291     398.633      78.661
  H      252.099     397.326      78.861
  P      249.308     396.329      78.353
  C      246.810     395.981      77.610
  O      247.819     395.778      78.586
  O      250.075     395.962      79.707
  O      249.967     395.847      77.104
  H      249.833     396.540      80.451
  H      245.894     395.543      77.948
  H      247.106     395.523      76.690
  H      246.668     397.030      77.456

 6  7  8  9  10  11  12  13  14  15  16  27  31  32  33  34  35 0
 6-311+G(2d,p)
 ****
 36  37 0
 6-311+G(2d,p)
 ****
 1  2  3  4  5  17  18  19  20  21  22  23  24  25 0
 3-21G
 ****
 26  28  29  30  38  39  40  41  42  43  44  45 0
 3-21G
 ****


