%nproc=1
%NoSave
%Mem=1900MB
#P OB98/GEN NMR

erre ene a

0 1
  C      150.446     495.738     -96.297
  O      149.806     495.397     -97.521
  P      149.041     496.508     -98.378
  C      147.132     498.224     -97.824
  O      147.764     496.988     -97.559
  C      146.354     498.665     -96.578
  O      147.238     499.321     -95.639
  C      145.235     499.642     -96.929
  O      144.002     498.952     -97.106
  C      145.231     500.589     -95.745
  O      144.505     500.017     -94.644
  C      146.735     500.667     -95.408
  N      147.581     501.601     -96.180
  C      147.760     502.911     -95.727
  O      147.279     503.338     -94.682
  N      148.511     503.725     -96.542
  C      149.110     503.352     -97.712
  O      149.562     504.130     -98.546
  C      149.116     501.910     -97.995
  C      148.344     501.118     -97.244
  O      148.410     495.654     -99.584
  O      149.889     497.637     -98.877
  H      145.045     499.274     -94.300
  H      148.965     495.732    -100.382
  H      148.519     504.709     -96.290
  H      149.697     501.547     -98.827
  H      148.292     500.055     -97.454
  H      146.895     500.895     -94.346
  H      144.734     501.524     -95.989
  H      145.496     500.210     -97.839
  H      145.940     497.777     -96.088
  H      146.467     498.128     -98.684
  H      147.889     498.983     -98.084
  P      142.860     499.599     -98.013
  C      141.325     501.619     -97.633
  O      142.031     500.560     -97.024
  O      142.036     498.634     -98.802
  O      143.660     500.612     -98.961
  H      143.833     500.190     -99.833
  H      140.668     502.081     -96.892
  H      140.712     501.247     -98.467
  H      142.026     502.370     -98.004
  H      150.899     494.865     -95.876
  H      149.722     496.130     -95.613
  H      151.198     496.476     -96.481

 3  4  5  6  7  8  9  10  11  12  13  23  28  29  30  31  32 0
 6-311+G(2d,p)
 ****
 33  34 0
 6-311+G(2d,p)
 ****
 1  2  14  15  16  17  18  19  20  21  22  24  25  26  27 0
 3-21G
 ****
 35  36  37  38  39  40  41  42  43  44  45 0
 3-21G
 ****


