%nproc=1
%NoSave
%Mem=1900MB
#P OB98/GEN NMR

erre ene a

0 1
  C      644.390    -205.152     738.312
  O      645.540    -205.850     738.743
  P      646.299    -205.420     740.085
  C      647.025    -207.892     739.908
  O      647.373    -206.584     740.354
  C      648.110    -208.465     738.993
  O      649.417    -208.225     739.547
  C      648.016    -209.971     738.785
  O      646.979    -210.285     737.867
  C      649.418    -210.287     738.296
  O      649.551    -210.026     736.884
  C      650.286    -209.304     739.114
  N      650.946    -209.950     740.236
  C      652.157    -210.592     739.946
  O      652.582    -210.608     738.788
  N      652.830    -211.234     740.956
  C      652.318    -211.259     742.152
  N      653.023    -211.914     743.106
  C      651.029    -210.621     742.496
  C      650.399    -210.001     741.498
  O      645.412    -205.090     741.244
  O      647.214    -204.193     739.607
  H      649.167    -209.143     736.733
  H      646.678    -203.378     739.470
  H      650.643    -210.678     743.501
  H      649.449    -209.516     741.662
  H      651.051    -208.845     738.477
  H      649.682    -211.343     738.451
  H      647.843    -210.470     739.745
  H      648.047    -207.947     738.026
  H      653.892    -212.361     742.824
  H      646.087    -207.832     739.361
  H      652.706    -212.023     744.065
  H      646.872    -208.541     740.775
  P      646.027    -211.536     738.135
  C      644.676    -210.699     736.119
  O      645.211    -211.830     736.784
  O      645.201    -211.464     739.375
  O      647.042    -212.777     738.205
  H      646.800    -213.341     738.948
  H      644.449    -210.972     735.085
  H      645.393    -209.870     736.117
  H      643.756    -210.384     736.613
  H      644.030    -205.585     737.403
  H      644.638    -204.125     738.144
  H      643.631    -205.217     739.063

 3  4  5  6  7  8  9  10  11  12  13  23  27  28  29  30  32 0
 6-311+G(2d,p)
 ****
 34  35 0
 6-311+G(2d,p)
 ****
 1  2  14  15  16  17  18  19  20  21  22  24  25  26 0
 3-21G
 ****
 31  33  36  37  38  39  40  41  42  43  44  45  46 0
 3-21G
 ****


