%nproc=1
%NoSave
%Mem=1900MB
#P OB98/GEN NMR

erre ene a

0 1
  C      -55.075     148.805    -259.678
  O      -53.858     148.629    -258.979
  P      -52.548     149.380    -259.526
  C      -52.570     151.323    -257.752
  O      -52.696     150.922    -259.102
  C      -51.249     152.069    -257.538
  O      -51.204     153.212    -258.442
  C      -51.039     152.603    -256.110
  O      -49.637     152.504    -255.824
  C      -51.463     154.058    -256.230
  O      -50.909     154.873    -255.203
  C      -50.956     154.387    -257.638
  N      -51.607     155.555    -258.229
  C      -51.364     156.800    -257.650
  O      -50.656     156.966    -256.660
  N      -52.003     157.866    -258.239
  C      -52.885     157.802    -259.277
  O      -53.440     158.786    -259.753
  C      -53.138     156.460    -259.819
  C      -52.496     155.419    -259.286
  O      -52.823     149.378    -261.099
  O      -51.269     148.740    -259.104
  H      -53.763     149.486    -261.322
  H      -49.942     154.874    -255.312
  H      -51.811     158.779    -257.857
  H      -53.845     156.369    -260.634
  H      -52.664     154.419    -259.666
  H      -49.870     154.543    -257.625
  H      -52.554     154.120    -256.170
  H      -51.611     152.037    -255.372
  H      -50.423     151.403    -257.824
  H      -52.583     150.436    -257.106
  H      -53.420     151.952    -257.475
  P      -49.177     152.439    -254.282
  C      -48.448     149.961    -254.699
  O      -49.103     150.892    -253.874
  O      -50.528     152.934    -253.569
  O      -47.999     153.287    -253.936
  H      -51.319     152.477    -253.893
  H      -48.209     149.067    -254.112
  H      -47.516     150.367    -255.102
  H      -49.107     149.673    -255.525
  H      -55.848     148.245    -259.194
  H      -54.961     148.460    -260.684
  H      -55.336     149.843    -259.684

 3  4  5  6  7  8  9  10  11  12  13  24  28  29  30  31  32 0
 6-311+G(2d,p)
 ****
 33  34 0
 6-311+G(2d,p)
 ****
 1  2  14  15  16  17  18  19  20  21  22  23  25  26  27 0
 3-21G
 ****
 35  36  37  38  39  40  41  42  43  44  45 0
 3-21G
 ****


