%nproc=1
%NoSave
%Mem=1900MB
#P OB98/GEN NMR

erre ene a

0 1
  C       52.812       1.941      23.568
  O       54.071       1.275      23.550
  P       55.251       1.516      24.594
  C       55.998      -1.005      24.658
  O       56.335       0.355      24.417
  C       57.026      -1.950      24.019
  O       56.774      -2.013      22.583
  C       58.467      -1.463      24.204
  O       59.383      -2.504      24.527
  C       58.727      -0.683      22.927
  O       60.106      -0.501      22.646
  C       57.932      -1.482      21.899
  N       58.504      -0.605      16.904
  C       59.235      -1.426      17.737
  N       60.266      -2.092      17.177
  N       58.990      -1.569      19.012
  C       57.983      -0.788      19.460
  C       57.195       0.077      18.737
  C       57.442       0.190      17.316
  O       56.811       0.888      16.528
  N       56.265       0.691      19.535
  C       56.503       0.216      20.740
  N       57.534      -0.695      20.745
  O       54.833       1.837      25.989
  O       56.018       2.809      24.010
  H       60.441      -1.326      22.250
  H       56.368       3.293      24.785
  H       58.722      -0.550      15.924
  H       55.955       0.482      21.637
  H       58.501      -2.325      21.502
  H       58.292       0.316      23.056
  H       60.586      -1.934      16.235
  H       58.541      -0.785      25.061
  H       60.929      -2.514      17.831
  H       56.885      -2.955      24.431
  H       55.016      -1.157      24.198
  H       55.897      -1.194      25.727
  P       60.600      -2.478      25.560
  C       59.683      -4.357      27.043
  O       60.746      -3.932      26.212
  O       60.084      -1.588      26.785
  O       61.871      -1.916      25.013
  H       60.653      -0.798      26.880
  H       60.015      -5.221      27.624
  H       58.830      -4.652      26.427
  H       59.385      -3.561      27.730
  H       52.211       1.589      22.756
  H       52.965       2.995      23.468
  H       52.315       1.739      24.493

 3  4  5  6  7  8  9  10  11  12  23  26  30  31 0
 6-311+G(2d,p)
 ****
 33  35  36  37  38 0
 6-311+G(2d,p)
 ****
 1  2  13  14  15  16  17  18  19  20  21  22  24  25 0
 3-21G
 ****
 27  28  29  32  34  39  40  41  42  43  44  45  46  47  48  49 0
 3-21G
 ****


