%nproc=1
%NoSave
%Mem=1900MB
#P OB98/GEN NMR

erre ene a

0 1
  C      138.465     319.351    -350.368
  O      137.587     319.844    -349.351
  P      137.571     319.137    -347.915
  C      136.947     316.835    -346.906
  O      136.863     317.702    -348.031
  C      135.643     316.051    -346.751
  O      134.577     316.877    -346.210
  C      135.102     315.533    -348.080
  O      135.830     314.508    -348.720
  C      133.646     315.251    -347.745
  O      133.484     313.975    -347.136
  C      133.326     316.379    -346.734
  N      132.536     317.461    -347.318
  C      131.263     317.117    -347.765
  O      130.822     315.969    -347.718
  N      130.519     318.136    -348.303
  C      130.931     319.427    -348.461
  O      130.231     320.298    -348.969
  C      132.297     319.728    -348.001
  C      133.022     318.751    -347.460
  O      137.098     319.987    -346.782
  O      139.118     318.736    -347.703
  H      134.101     313.928    -346.382
  H      139.345     318.922    -346.771
  H      129.589     317.906    -348.617
  H      132.657     320.741    -348.116
  H      134.035     318.946    -347.101
  H      132.769     315.980    -345.879
  H      133.014     315.260    -348.635
  H      135.102     316.382    -348.788
  H      135.811     315.229    -346.047
  H      137.143     317.421    -346.005
  H      137.805     316.168    -347.034
  P      136.903     314.785    -349.873
  C      136.751     315.637    -352.323
  O      136.197     315.661    -351.022
  O      137.749     313.638    -350.315
  O      137.856     315.877    -349.178
  H      138.760     315.752    -349.507
  H      136.155     316.296    -352.965
  H      136.715     314.623    -352.733
  H      137.783     316.002    -352.308
  H      138.346     319.936    -351.256
  H      138.228     318.329    -350.579
  H      139.478     319.419    -350.029

 3  4  5  6  7  8  9  10  11  12  13  23  28  29  30  31  32 0
 6-311+G(2d,p)
 ****
 33  34 0
 6-311+G(2d,p)
 ****
 1  2  14  15  16  17  18  19  20  21  22  24  25  26  27 0
 3-21G
 ****
 35  36  37  38  39  40  41  42  43  44  45 0
 3-21G
 ****


