%nproc=1
%NoSave
%Mem=1900MB
#P OB98/GEN NMR

erre ene a

0 1
  C      -29.759      46.575     -34.808
  O      -28.577      46.488     -35.576
  P      -28.474      47.175     -37.017
  C      -29.466      45.213     -38.332
  O      -29.634      46.569     -37.941
  C      -29.493      45.065     -39.853
  O      -30.765      45.547     -40.360
  C      -28.377      45.828     -40.578
  O      -27.950      45.014     -41.674
  C      -29.085      47.071     -41.081
  O      -28.411      47.672     -42.178
  C      -30.472      46.501     -41.399
  N      -31.493      47.533     -41.477
  C      -32.123      47.708     -42.711
  O      -31.719      47.100     -43.703
  N      -33.181      48.578     -42.788
  C      -33.456      49.341     -41.776
  N      -34.554      50.140     -41.871
  C      -32.648      49.357     -40.541
  C      -31.721      48.409     -40.441
  O      -27.115      47.152     -37.634
  O      -28.962      48.681     -36.770
  H      -28.285      49.296     -37.113
  H      -28.511      47.097     -42.965
  H      -32.837      50.096     -39.777
  H      -31.094      48.319     -39.562
  H      -30.453      45.950     -42.348
  H      -29.150      47.810     -40.275
  H      -27.522      46.044     -39.932
  H      -29.433      43.996     -40.092
  H      -35.106      50.072     -42.716
  H      -30.284      44.631     -37.903
  H      -35.021      50.516     -41.048
  H      -28.528      44.822     -37.924
  P      -26.372      44.813     -41.904
  C      -26.385      46.080     -44.167
  O      -25.861      45.992     -42.860
  O      -26.350      43.547     -42.894
  O      -25.554      44.520     -40.690
  H      -25.497      43.086     -42.798
  H      -25.878      46.893     -44.692
  H      -27.455      46.301     -44.134
  H      -26.215      45.150     -44.715
  H      -29.623      46.053     -33.884
  H      -30.570      46.135     -35.350
  H      -29.980      47.603     -34.608

 3  4  5  6  7  8  9  10  11  12  13  24  27  28  29  30  32 0
 6-311+G(2d,p)
 ****
 34  35 0
 6-311+G(2d,p)
 ****
 1  2  14  15  16  17  18  19  20  21  22  23  25  26 0
 3-21G
 ****
 31  33  36  37  38  39  40  41  42  43  44  45  46 0
 3-21G
 ****


