%nproc=1
%NoSave
%Mem=1900MB
#P OB98/GEN NMR

erre ene a

0 1
  C     -121.031     109.286     209.231
  O     -121.743     109.901     208.175
  H     -120.545     110.063     209.828
  H     -120.263     108.615     208.836
  H     -121.721     108.729     209.872
  P     -122.486     108.922     207.145
  C     -124.742     108.618     208.361
  O     -124.048     109.276     207.307
  C     -126.151     109.192     208.511
  O     -126.041     110.609     208.812
  C     -127.009     109.054     207.246
  O     -128.368     108.812     207.627
  C     -126.907     110.429     206.605
  O     -128.000     110.702     205.734
  C     -126.830     111.326     207.840
  N     -127.072     115.318     204.683
  C     -127.899     114.268     204.879
  N     -127.769     113.255     205.765
  C     -126.676     113.435     206.537
  C     -125.743     114.453     206.453
  C     -125.968     115.429     205.463
  N     -125.115     116.482     205.234
  N     -124.737     114.261     207.384
  C     -125.066     113.152     208.021
  N     -126.221     112.606     207.525
  O     -122.148     107.473     207.272
  O     -122.126     109.588     205.735
  H     -128.048     111.672     205.592
  H     -122.258     110.557     205.752
  H     -128.777     114.226     204.236
  H     -124.498     112.697     208.829
  H     -127.816     111.530     208.278
  H     -125.982     110.495     206.019
  H     -126.668     108.262     206.579
  H     -126.638     108.721     209.377
  H     -124.195     108.736     209.304
  H     -125.354     117.140     204.503
  H     -124.289     116.589     205.801
  H     -124.789     107.552     208.118
  P     -129.092     107.471     207.132
  C     -128.007     105.972     208.930
  O     -129.223     106.462     208.377
  O     -128.541     106.863     205.881
  O     -130.612     107.945     206.915
  H     -130.955     107.547     206.092
  H     -128.225     105.315     209.746
  H     -127.418     106.794     209.281
  H     -127.463     105.439     208.179

 6  7  8  9  10  11  12  13  14  15  25  28  32  33  34  35 0
 6-311+G(2d,p)
 ****
 36  39  40 0
 6-311+G(2d,p)
 ****
 1  2  3  4  5  16  17  18  19  20  21  22  23  24 0
 3-21G
 ****
 26  27  29  30  31  37  38  41  42  43  44  45  46  47 0
 3-21G
 ****
 48 0
 3-21G
 ****


