%nproc=1
%NoSave
%Mem=1900MB
#P OB98/GEN NMR

erre ene a

0 1
  C     -107.794    -863.999     -37.959
  O     -106.605    -864.728     -38.240
  P     -105.503    -864.146     -39.261
  C     -104.420    -862.948     -37.237
  O     -104.949    -862.820     -38.564
  C     -102.933    -862.608     -37.250
  O     -102.747    -861.255     -37.698
  C     -102.267    -862.687     -35.885
  O     -102.027    -864.033     -35.507
  C     -101.021    -861.842     -36.115
  O     -100.017    -862.623     -36.816
  C     -101.558    -860.744     -37.054
  N     -101.847    -859.493     -36.343
  C     -100.745    -858.744     -35.916
  O      -99.600    -859.124     -36.128
  N     -100.979    -857.549     -35.260
  C     -102.198    -857.145     -35.046
  N     -102.364    -855.938     -34.455
  C     -103.381    -857.941     -35.436
  C     -103.145    -859.081     -36.078
  O     -106.004    -863.953     -40.663
  O     -104.266    -865.158     -39.142
  H      -99.274    -862.002     -37.001
  H     -104.328    -865.925     -39.760
  H     -104.377    -857.560     -35.226
  H     -103.958    -859.699     -36.418
  H     -100.837    -860.522     -37.846
  H     -100.568    -861.467     -35.200
  H     -102.898    -862.215     -35.116
  H     -102.424    -863.284     -37.956
  H     -101.525    -855.357     -34.375
  H     -104.553    -863.995     -36.925
  H     -103.239    -855.436     -34.513
  H     -104.970    -862.300     -36.566
  P     -102.117    -864.392     -33.939
  C     -104.675    -864.335     -33.590
  O     -103.451    -863.684     -33.388
  O     -100.919    -863.559     -33.302
  O     -102.010    -865.862     -33.633
  H     -100.141    -864.133     -33.133
  H     -105.446    -863.860     -32.960
  H     -104.617    -865.400     -33.307
  H     -104.985    -864.260     -34.644
  H     -108.393    -864.548     -37.263
  H     -108.344    -863.851     -38.865
  H     -107.539    -863.049     -37.538

 3  4  5  6  7  8  9  10  11  12  13  23  27  28  29  30  32 0
 6-311+G(2d,p)
 ****
 34  35 0
 6-311+G(2d,p)
 ****
 1  2  14  15  16  17  18  19  20  21  22  24  25  26 0
 3-21G
 ****
 31  33  36  37  38  39  40  41  42  43  44  45  46 0
 3-21G
 ****


