%nproc=1
%NoSave
%Mem=1900MB
#P OB98/GEN NMR

erre ene a

0 1
  C      197.692    -227.874    -390.099
  O      198.951    -228.384    -389.714
  H      197.420    -228.300    -391.066
  H      197.757    -226.788    -390.200
  H      196.922    -228.134    -389.367
  P      199.373    -228.217    -388.175
  C      199.054    -230.549    -387.080
  O      199.951    -229.640    -387.700
  C      199.826    -231.580    -386.257
  O      198.885    -232.277    -385.384
  C      200.555    -232.642    -387.100
  O      201.796    -232.967    -386.462
  C      199.636    -233.846    -386.991
  O      200.320    -235.071    -387.229
  C      199.127    -233.685    -385.562
  N      197.558    -238.334    -384.510
  C      198.826    -237.789    -384.489
  N      199.848    -238.622    -384.202
  N      199.073    -236.529    -384.734
  C      197.959    -235.801    -384.987
  C      196.653    -236.221    -385.042
  C      196.392    -237.622    -384.787
  O      195.295    -238.168    -384.809
  N      195.819    -235.188    -385.391
  C      196.625    -234.154    -385.569
  N      197.932    -234.478    -385.335
  O      197.956    -228.121    -387.434
  O      200.240    -227.043    -387.873
  H      200.621    -235.077    -388.160
  H      197.710    -227.185    -387.312
  H      197.422    -239.313    -384.330
  H      196.316    -233.167    -385.880
  H      199.867    -234.003    -384.814
  H      198.816    -233.758    -387.714
  H      199.734    -239.597    -383.973
  H      200.739    -232.336    -388.135
  H      200.780    -238.228    -384.145
  H      200.533    -231.051    -385.606
  H      198.479    -231.070    -387.853
  H      198.361    -229.993    -386.441
  P      203.013    -231.934    -386.610
  C      203.484    -230.943    -384.250
  O      203.834    -231.907    -385.232
  O      202.279    -230.512    -386.628
  O      203.834    -232.139    -387.840
  H      202.758    -229.900    -387.214
  H      204.120    -231.056    -383.397
  H      202.465    -231.087    -383.956
  H      203.603    -229.960    -384.656

 6  7  8  9  10  11  12  13  14  15  26  29  33  34 0
 6-311+G(2d,p)
 ****
 36  38  39  40  41 0
 6-311+G(2d,p)
 ****
 1  2  3  4  5  16  17  18  19  20  21  22  23  24  25 0
 3-21G
 ****
 27  28  30  31  32  35  37  42  43  44  45  46  47 0
 3-21G
 ****
 48  49 0
 3-21G
 ****


