%nproc=1
%NoSave
%Mem=1900MB
#P OB98/GEN NMR

erre ene a

0 1
  C     -644.316      31.564     493.953
  O     -643.011      31.962     493.574
  P     -642.456      33.406     493.989
  C     -640.185      32.779     495.010
  O     -641.513      33.228     495.273
  C     -639.572      32.187     496.286
  O     -640.292      30.983     496.673
  C     -638.119      31.759     496.129
  O     -637.252      32.882     496.158
  C     -637.961      30.810     497.314
  O     -637.724      31.536     498.530
  C     -639.344      30.134     497.357
  N     -637.567      25.362     497.764
  C     -637.269      26.486     498.429
  N     -637.752      27.740     498.242
  C     -638.626      27.749     497.222
  C     -639.011      26.677     496.415
  C     -638.457      25.426     496.734
  N     -638.808      24.245     496.099
  N     -639.908      27.097     495.450
  C     -640.055      28.387     495.650
  N     -639.357      28.813     496.747
  O     -643.495      34.474     494.112
  O     -641.418      33.765     492.827
  H     -636.815      31.899     498.467
  H     -641.703      34.575     492.366
  H     -636.545      26.389     499.239
  H     -640.661      29.054     495.047
  H     -639.708      30.021     498.388
  H     -637.130      30.108     497.177
  H     -637.986      31.201     495.192
  H     -639.679      32.923     497.089
  H     -639.589      33.638     494.685
  H     -638.461      23.396     496.511
  H     -639.671      24.232     495.575
  H     -640.201      32.031     494.221
  P     -636.179      33.096     494.991
  C     -636.763      35.552     494.520
  O     -636.775      34.232     494.023
  O     -635.713      31.846     494.314
  O     -634.971      33.853     495.726
  H     -634.123      33.588     495.312
  H     -637.597      35.684     495.223
  H     -636.886      36.246     493.687
  H     -635.817      35.774     495.038
  H     -644.508      30.576     493.589
  H     -645.031      32.243     493.537
  H     -644.396      31.572     495.020

 3  4  5  6  7  8  9  10  11  12  22  25  29  30  31  32 0
 6-311+G(2d,p)
 ****
 33  36  37 0
 6-311+G(2d,p)
 ****
 1  2  13  14  15  16  17  18  19  20  21  23  24  26 0
 3-21G
 ****
 27  28  34  35  38  39  40  41  42  43  44  45  46  47  48 0
 3-21G
 ****


