%nproc=1
%NoSave
%Mem=1900MB
#P OB98/GEN NMR

erre ene a

0 1
  C      954.105     133.932    -519.182
  O      952.840     133.749    -519.803
  P      952.836     133.245    -521.327
  C      952.498     130.813    -520.453
  O      953.253     131.696    -521.279
  C      951.841     129.728    -521.297
  O      952.775     129.223    -522.265
  C      951.373     128.529    -520.509
  O      950.164     128.816    -519.823
  C      951.233     127.480    -521.596
  O      949.942     127.543    -522.220
  C      952.352     127.874    -522.590
  N      953.466     126.945    -522.582
  C      953.195     125.671    -523.101
  O      952.068     125.399    -523.499
  N      954.200     124.732    -523.103
  C      955.376     125.050    -522.624
  N      956.337     124.087    -522.663
  C      955.686     126.373    -522.057
  C      954.699     127.262    -522.060
  O      954.113     133.967    -521.955
  O      951.576     133.556    -522.079
  H      950.058     127.167    -523.120
  H      954.001     134.090    -522.920
  H      956.677     126.586    -521.679
  H      954.843     128.262    -521.664
  H      951.949     127.918    -523.612
  H      951.340     126.461    -521.203
  H      952.147     128.211    -519.791
  H      950.999     130.181    -521.842
  H      956.084     123.189    -523.047
  H      951.723     131.386    -519.934
  H      957.282     124.239    -522.340
  H      953.170     130.377    -519.708
  P      950.242     129.105    -518.251
  C      949.554     131.585    -518.351
  O      950.619     130.667    -518.140
  O      951.622     128.407    -517.842
  O      949.091     128.640    -517.415
  H      951.725     128.439    -516.872
  H      949.899     132.588    -518.092
  H      948.708     131.333    -517.707
  H      949.243     131.569    -519.403
  H      953.963     134.267    -518.176
  H      954.667     134.663    -519.726
  H      954.637     133.004    -519.177

 3  4  5  6  7  8  9  10  11  12  13  21  23  27  28  29  30  32 0
 6-311+G(2d,p)
 ****
 34  35 0
 6-311+G(2d,p)
 ****
 1  2  14  15  16  17  18  19  20  22  24  25  26 0
 3-21G
 ****
 31  33  36  37  38  39  40  41  42  43  44  45  46 0
 3-21G
 ****


