%nproc=1
%NoSave
%Mem=1900MB
#P OB98/GEN NMR

erre ene a

0 1
  C     -102.047     -21.225      26.186
  O     -101.077     -20.190      26.112
  P      -99.534     -20.626      26.021
  C      -98.452     -19.875      28.257
  O      -98.730     -19.551      26.899
  C      -97.312     -19.016      28.789
  O      -96.095     -19.331      28.088
  C      -97.511     -17.519      28.608
  O      -98.351     -16.969      29.612
  C      -96.083     -17.014      28.753
  O      -95.748     -16.900      30.149
  C      -95.267     -18.141      28.097
  N      -91.483     -16.566      25.125
  C      -91.514     -16.757      26.492
  N      -90.363     -16.520      27.158
  N      -92.576     -17.143      27.147
  C      -93.641     -17.382      26.346
  C      -93.734     -17.228      24.980
  C      -92.566     -16.750      24.274
  O      -92.498     -16.501      23.073
  N      -94.976     -17.583      24.522
  C      -95.621     -17.987      25.598
  N      -94.862     -17.854      26.735
  O      -99.137     -20.244      24.519
  O      -99.262     -22.060      26.320
  H      -96.279     -16.166      30.511
  H      -98.391     -20.799      24.221
  H      -90.633     -16.285      24.669
  H      -96.629     -18.377      25.600
  H      -94.373     -18.378      28.683
  H      -95.931     -16.026      28.307
  H      -89.483     -16.349      26.696
  H      -97.881     -17.288      27.604
  H      -90.356     -16.689      28.155
  H      -97.166     -19.260      29.849
  H      -98.163     -20.930      28.323
  H      -99.359     -19.722      28.850
  P      -99.552     -16.028      29.108
  C      -99.525     -14.901      31.448
  O     -100.290     -15.537      30.442
  O     -100.579     -17.064      28.455
  O      -99.136     -14.962      28.151
  H     -101.124     -16.619      27.778
  H      -98.741     -14.272      31.017
  H      -99.072     -15.657      32.095
  H     -100.187     -14.272      32.048
  H     -103.025     -20.794      26.242
  H     -101.869     -21.819      27.058
  H     -101.978     -21.841      25.314

 3  4  5  6  7  8  9  10  11  12  23  26  30  31  33  0
 6-311+G(2d,p)
 ****
 35  36  37  38 0
 6-311+G(2d,p)
 ****
 1  2  13  14  15  16  17  18  19  20  21  22  24  25  27  28  29 0
 3-21G
 ****
 32  34  39  40  41  42  43  44  45  46  47  48  49 0
 3-21G
 ****


