%nproc=1
%NoSave
%Mem=1900MB
#P OB98/GEN NMR

erre ene a

0 1
  C     -902.609    -258.967    -229.804
  O     -902.737    -259.561    -228.524
  H     -901.577    -259.109    -230.154
  H     -902.814    -257.893    -229.756
  H     -903.282    -259.449    -230.523
  P     -904.177    -259.441    -227.830
  C     -903.137    -257.837    -226.060
  O     -904.171    -258.049    -227.022
  C     -903.301    -256.479    -225.391
  O     -902.818    -255.419    -226.265
  C     -904.736    -256.131    -225.010
  O     -905.091    -256.723    -223.784
  C     -904.663    -254.604    -224.934
  O     -904.106    -254.169    -223.672
  C     -903.702    -254.268    -226.099
  N     -906.635    -250.953    -228.523
  C     -906.089    -250.903    -227.244
  N     -906.421    -249.830    -226.488
  N     -905.304    -251.823    -226.758
  C     -905.097    -252.840    -227.616
  C     -905.563    -253.016    -228.900
  C     -906.408    -251.964    -229.439
  O     -906.882    -251.920    -230.576
  N     -905.122    -254.183    -229.452
  C     -904.401    -254.747    -228.495
  N     -904.379    -253.978    -227.346
  O     -904.116    -260.536    -226.663
  O     -905.343    -259.652    -228.732
  H     -904.712    -254.419    -222.961
  H     -905.022    -260.885    -226.515
  H     -907.227    -250.199    -228.847
  H     -903.899    -255.701    -228.567
  H     -903.069    -253.412    -225.872
  H     -905.645    -254.150    -225.018
  H     -907.259    -249.279    -226.679
  H     -905.423    -256.415    -225.819
  H     -906.044    -249.788    -225.553
  H     -902.648    -256.472    -224.493
  H     -902.160    -257.871    -226.576
  H     -903.174    -258.635    -225.308
  P     -906.670    -256.990    -223.512
  C     -906.976    -255.602    -221.311
  O     -907.211    -255.697    -222.728
  O     -906.658    -258.126    -222.384
  O     -907.445    -257.387    -224.734
  H     -907.534    -258.542    -222.349
  H     -907.395    -254.690    -220.940
  H     -905.923    -255.614    -221.123
  H     -907.436    -256.432    -220.817

 6  7  8  9  10  11  12  13  14  15  26  29  33  34 0
 6-311+G(2d,p)
 ****
 36  38  39  40  41 0
 6-311+G(2d,p)
 ****
 1  2  3  4  5  16  17  18  19  20  21  22  23  24  25 0
 3-21G
 ****
 27  28  30  31  32  35  37  42  43  44  45  46  47 0
 3-21G
 ****
 48  49 0
 3-21G
 ****


