%nproc=1
%NoSave
%Mem=1900MB
#P OB98/GEN NMR

erre ene a

0 1
  C      178.733     -49.056     465.650
  O      178.364     -47.821     466.273
  P      178.618     -47.467     467.805
  C      176.299     -46.376     468.382
  O      177.697     -46.214     468.192
  C      175.480     -45.130     467.977
  O      175.163     -45.191     466.563
  C      174.146     -45.101     468.720
  O      174.070     -44.581     470.043
  C      173.179     -44.444     467.739
  O      173.043     -43.039     467.948
  C      173.808     -44.728     466.373
  N      169.852     -45.602     463.239
  C      170.217     -44.436     463.878
  N      169.406     -43.376     463.718
  N      171.282     -44.329     464.642
  C      171.960     -45.486     464.788
  C      171.690     -46.716     464.232
  C      170.544     -46.818     463.337
  O      170.189     -47.820     462.738
  N      172.592     -47.668     464.621
  C      173.399     -47.029     465.458
  N      173.056     -45.693     465.590
  O      180.049     -47.409     468.232
  O      177.922     -48.692     468.592
  H      172.751     -42.633     467.114
  H      178.451     -48.844     469.404
  H      169.040     -45.630     462.645
  H      174.224     -47.479     465.982
  H      173.874     -43.819     465.762
  H      172.167     -44.871     467.855
  H      168.516     -43.429     463.254
  H      173.814     -46.144     468.807
  H      169.539     -42.591     464.351
  H      176.076     -44.214     468.120
  H      176.143     -46.602     469.440
  H      175.942     -47.241     467.812
  P      173.314     -45.256     471.274
  C      172.457     -43.117     472.390
  O      173.338     -44.225     472.503
  O      174.339     -46.406     471.766
  O      171.977     -45.847     470.967
  H      173.883     -47.052     472.342
  H      172.776     -42.343     473.110
  H      171.436     -43.427     472.636
  H      172.473     -42.699     471.373
  H      178.449     -49.034     464.619
  H      178.234     -49.866     466.140
  H      179.792     -49.191     465.726

 3  4  5  6  7  8  9  10  11  12  23  26  30  31 0
 6-311+G(2d,p)
 ****
 33  35  36  37  38 0
 6-311+G(2d,p)
 ****
 1  2  13  14  15  16  17  18  19  20  21  22  24  25 0
 3-21G
 ****
 27  28  29  32  34  39  40  41  42  43  44  45  46  47  48  49 0
 3-21G
 ****


