%nproc=1
%NoSave
%Mem=1900MB
#P OB98/GEN NMR

erre ene a

0 1
  C      -62.895      17.176      47.121
  O      -63.145      15.819      47.449
  P      -64.299      15.510      48.521
  C      -64.242      13.028      47.652
  O      -64.268      13.925      48.750
  C      -63.645      11.685      48.080
  O      -62.207      11.784      48.141
  C      -64.078      11.212      49.461
  O      -65.391      10.675      49.448
  C      -62.982      10.203      49.785
  O      -63.249       8.950      49.133
  C      -61.742      10.874      49.161
  N      -60.903      11.561      50.141
  C      -60.200      10.748      51.025
  O      -60.260       9.520      51.004
  N      -59.433      11.401      51.953
  C      -59.353      12.753      52.122
  O      -58.685      13.285      52.999
  C      -60.145      13.558      51.180
  C      -60.871      12.936      50.249
  O      -65.602      15.769      47.632
  O      -64.194      16.346      49.751
  H      -65.432      15.614      46.686
  H      -64.184       8.737      49.316
  H      -58.895      10.834      52.591
  H      -60.114      14.635      51.289
  H      -61.467      13.513      49.553
  H      -61.127      10.127      48.645
  H      -62.897      10.003      50.858
  H      -64.030      12.045      50.173
  H      -63.903      10.938      47.319
  H      -63.633      13.461      46.853
  H      -65.263      12.892      47.279
  P      -66.579      11.669      49.884
  C      -68.788      10.764      48.820
  O      -67.912      10.782      49.925
  O      -66.737      12.561      48.565
  O      -66.285      12.446      51.125
  H      -66.690      12.038      47.747
  H      -69.412       9.868      48.882
  H      -68.239      10.746      47.875
  H      -69.433      11.645      48.851
  H      -62.106      17.229      46.400
  H      -62.608      17.709      48.003
  H      -63.782      17.613      46.712

 3  4  5  6  7  8  9  10  11  12  13  24  28  29  30  31  32 0
 6-311+G(2d,p)
 ****
 33  34 0
 6-311+G(2d,p)
 ****
 1  2  14  15  16  17  18  19  20  21  22  23  25  26  27 0
 3-21G
 ****
 35  36  37  38  39  40  41  42  43  44  45 0
 3-21G
 ****


