%nproc=1
%NoSave
%Mem=1900MB
#P OB98/GEN NMR

erre ene a

0 1
  C     -627.346      56.809    -482.330
  O     -627.299      56.757    -483.738
  P     -627.619      55.352    -484.458
  C     -625.349      55.525    -485.733
  O     -626.206      54.738    -484.898
  C     -624.047      54.769    -486.011
  O     -623.211      54.745    -484.848
  C     -624.243      53.313    -486.397
  O     -624.585      53.144    -487.771
  C     -622.836      52.749    -486.142
  O     -621.972      53.070    -487.237
  C     -622.427      53.525    -484.866
  N     -620.452      50.077    -481.743
  C     -619.856      50.759    -482.785
  N     -618.586      50.438    -483.077
  N     -620.469      51.689    -483.480
  C     -621.742      51.907    -483.095
  C     -622.433      51.296    -482.063
  C     -621.763      50.271    -481.297
  O     -622.242      49.598    -480.401
  N     -623.717      51.785    -481.958
  C     -623.796      52.684    -482.915
  N     -622.651      52.775    -483.659
  O     -628.279      55.785    -485.853
  O     -628.492      54.442    -483.654
  H     -621.079      52.743    -486.980
  H     -628.749      55.023    -486.231
  H     -619.940      49.380    -481.225
  H     -624.671      53.302    -483.108
  H     -621.370      53.808    -484.907
  H     -622.837      51.663    -486.023
  H     -618.076      49.697    -482.620
  H     -624.962      52.809    -485.738
  H     -618.144      50.876    -483.882
  H     -623.509      55.309    -486.807
  H     -625.134      56.467    -485.256
  H     -625.875      55.726    -486.681
  P     -625.145      51.714    -488.210
  C     -623.247      51.515    -489.980
  O     -623.889      50.939    -488.858
  O     -626.074      52.066    -489.471
  O     -625.886      50.986    -487.146
  H     -626.778      51.384    -489.572
  H     -622.286      51.009    -490.129
  H     -623.080      52.579    -489.844
  H     -623.851      51.349    -490.876
  H     -627.113      57.800    -482.002
  H     -626.634      56.122    -481.924
  H     -628.327      56.544    -481.996

 3  4  5  6  7  8  9  10  11  12  23  26  30  31 0
 6-311+G(2d,p)
 ****
 33  35  36  37  38 0
 6-311+G(2d,p)
 ****
 1  2  13  14  15  16  17  18  19  20  21  22  24  25 0
 3-21G
 ****
 27  28  29  32  34  39  40  41  42  43  44  45  46  47  48  49 0
 3-21G
 ****


