%nproc=1
%NoSave
%Mem=1900MB
#P OB98/GEN NMR

erre ene a

0 1
  C       -6.815     814.256     187.940
  O       -6.576     813.073     187.197
  P       -7.512     812.676     185.964
  C       -8.636     810.535     186.854
  O       -8.794     811.930     186.595
  C       -9.910     809.786     186.481
  O      -11.091     810.493     186.931
  C      -10.114     809.624     184.980
  O       -9.191     808.802     184.283
  C      -11.579     809.213     184.933
  O      -11.748     807.826     185.198
  C      -12.179     810.071     186.067
  N      -12.952     811.214     185.559
  C      -14.247     810.930     185.131
  O      -14.735     809.804     185.164
  N      -14.948     811.984     184.631
  C      -14.477     813.258     184.472
  O      -15.141     814.144     183.959
  C      -13.093     813.493     184.920
  C      -12.404     812.474     185.432
  O       -6.839     811.939     184.861
  O       -8.152     814.091     185.515
  H      -12.710     807.637     185.191
  H       -8.664     814.539     186.208
  H      -15.885     811.813     184.296
  H      -12.697     814.501     184.819
  H      -11.385     812.622     185.774
  H      -12.847     809.464     186.693
  H      -12.015     809.403     183.941
  H      -10.047     810.615     184.512
  H       -9.900     808.808     186.998
  H       -8.442     810.390     187.921
  H       -7.776     810.152     186.303
  P       -8.718     809.107     182.779
  C      -10.303     807.679     181.307
  O       -9.982     808.966     181.811
  O       -7.441     808.467     182.351
  O       -8.517     810.706     182.821
  H       -7.803     810.951     182.204
  H      -11.153     807.779     180.634
  H      -10.570     807.004     182.120
  H       -9.461     807.269     180.736
  H       -6.085     814.342     188.718
  H       -7.793     814.214     188.372
  H       -6.747     815.104     187.291

 3  4  5  6  7  8  9  10  11  12  13  23  28  29  30  31  32 0
 6-311+G(2d,p)
 ****
 33  34 0
 6-311+G(2d,p)
 ****
 1  2  14  15  16  17  18  19  20  21  22  24  25  26  27 0
 3-21G
 ****
 35  36  37  38  39  40  41  42  43  44  45 0
 3-21G
 ****


