%nproc=1
%NoSave
%Mem=1900MB
#P OB98/GEN NMR

erre ene a

0 1
  C       25.574      -6.438      24.107
  O       24.784      -6.101      25.229
  H       24.988      -7.021      23.393
  H       25.906      -5.517      23.619
  H       26.453      -7.009      24.421
  P       24.163      -7.320      26.068
  C       21.814      -7.301      24.952
  O       22.584      -7.036      26.115
  C       20.441      -6.653      25.097
  O       19.678      -6.827      23.882
  C       19.592      -7.255      26.210
  O       19.914      -6.730      27.486
  C       18.203      -6.824      25.771
  O       18.004      -5.434      26.085
  C       18.285      -7.021      24.250
  N       14.965      -9.598      21.327
  C       15.173      -8.275      21.504
  N       16.091      -7.670      22.284
  C       16.852      -8.578      22.915
  C       16.763      -9.957      22.828
  C       15.759     -10.471      21.990
  N       15.522     -11.818      21.831
  N       17.703     -10.557      23.642
  C       18.358      -9.556      24.194
  N       17.859      -8.340      23.811
  O       24.627      -7.022      27.571
  O       24.532      -8.688      25.602
  H       17.058      -5.241      25.936
  H       24.497      -7.812      28.129
  H       14.512      -7.617      20.949
  H       19.188      -9.658      24.881
  H       17.689      -6.287      23.697
  H       17.409      -7.384      26.272
  H       19.643      -8.350      26.207
  H       20.583      -5.576      25.249
  H       21.699      -8.384      24.838
  H       14.690     -12.083      21.329
  H       16.007     -12.469      22.430
  H       22.329      -6.899      24.074
  P       19.863      -7.737      28.737
  C       17.926      -6.416      29.855
  O       19.259      -6.902      29.967
  O       21.405      -7.902      29.125
  O       19.206      -9.047      28.453
  H       21.580      -8.793      29.484
  H       17.665      -5.883      30.745
  H       17.256      -7.240      29.723
  H       17.855      -5.760      29.013

 6  7  8  9  10  11  12  13  14  15  25  28  32  33  34  35 0
 6-311+G(2d,p)
 ****
 36  39  40 0
 6-311+G(2d,p)
 ****
 1  2  3  4  5  16  17  18  19  20  21  22  23  24 0
 3-21G
 ****
 26  27  29  30  31  37  38  41  42  43  44  45  46  47 0
 3-21G
 ****
 48 0
 3-21G
 ****


