%nproc=1
%NoSave
%Mem=1900MB
#P OB98/GEN NMR

erre ene a

0 1
  C     -118.645    -105.227      27.235
  O     -119.665    -106.067      27.785
  P     -121.143    -106.080      27.156
  C     -120.365    -107.291      25.036
  O     -121.267    -107.323      26.141
  C     -120.548    -108.470      24.070
  O     -120.000    -109.690      24.629
  C     -122.002    -108.767      23.681
  O     -121.956    -109.241      22.330
  C     -122.371    -109.884      24.638
  O     -123.510    -110.620      24.208
  C     -121.054    -110.670      24.689
  N     -120.952    -111.506      25.882
  C     -121.738    -112.660      25.918
  O     -122.521    -112.908      24.997
  N     -121.661    -113.483      27.017
  C     -120.933    -113.129      28.030
  N     -120.911    -113.970      29.102
  C     -120.151    -111.876      28.073
  C     -120.198    -111.127      26.972
  O     -121.593    -104.771      26.594
  O     -122.079    -106.518      28.384
  H     -123.292    -111.051      23.355
  H     -122.962    -106.115      28.275
  H     -119.583    -111.610      28.952
  H     -119.657    -110.193      26.901
  H     -120.955    -111.317      23.805
  H     -122.598    -109.464      25.628
  H     -122.659    -107.899      23.767
  H     -119.962    -108.247      23.169
  H     -121.482    -114.807      29.043
  H     -119.341    -107.303      25.425
  H     -120.475    -113.739      29.980
  H     -120.496    -106.347      24.499
  P     -122.543    -108.389      21.108
  C     -121.091    -106.286      21.269
  O     -121.342    -107.484      20.555
  O     -123.801    -107.640      21.414
  O     -122.771    -109.458      19.933
  H     -123.378    -109.076      19.268
  H     -120.136    -105.870      20.942
  H     -121.045    -106.476      22.348
  H     -121.886    -105.561      21.067
  H     -117.738    -105.359      27.787
  H     -118.954    -104.204      27.296
  H     -118.481    -105.489      26.211

 3  4  5  6  7  8  9  10  11  12  13  23  27  28  29  30  32 0
 6-311+G(2d,p)
 ****
 34  35 0
 6-311+G(2d,p)
 ****
 1  2  14  15  16  17  18  19  20  21  22  24  25  26 0
 3-21G
 ****
 31  33  36  37  38  39  40  41  42  43  44  45  46 0
 3-21G
 ****


