%nproc=1
%NoSave
%Mem=1900MB
#P OB98/GEN NMR

erre ene a

0 1
  C     -778.961    -898.100    1163.947
  O     -778.240    -897.800    1162.766
  H     -778.618    -897.430    1164.742
  H     -778.779    -899.130    1164.252
  H     -780.029    -897.930    1163.796
  P     -778.659    -898.520    1161.398
  C     -780.277    -896.680    1160.616
  O     -779.069    -897.370    1160.362
  C     -780.336    -895.380    1159.815
  O     -779.350    -894.440    1160.307
  C     -779.995    -895.570    1158.326
  O     -781.070    -896.150    1157.627
  C     -779.654    -894.130    1157.938
  O     -780.846    -893.380    1157.658
  C     -778.948    -893.600    1159.211
  N     -777.492    -893.580    1159.054
  C     -776.853    -892.440    1159.509
  O     -777.429    -891.480    1160.029
  N     -775.490    -892.400    1159.308
  C     -774.767    -893.320    1158.564
  O     -773.626    -893.120    1158.204
  C     -775.496    -894.530    1158.180
  C     -776.808    -894.600    1158.416
  O     -779.649    -899.630    1161.534
  O     -777.267    -899.050    1160.804
  H     -777.193    -900.000    1160.987
  H     -781.409    -893.960    1157.116
  H     -775.028    -891.550    1159.573
  H     -774.960    -895.300    1157.667
  H     -777.387    -895.480    1158.108
  H     -779.297    -892.580    1159.434
  H     -779.032    -894.090    1157.041
  H     -779.092    -896.180    1158.236
  H     -781.334    -894.930    1159.925
  H     -780.335    -896.440    1161.694
  H     -781.130    -897.320    1160.361
  P     -780.958    -896.360    1156.034
  C     -779.902    -898.670    1156.387
  O     -780.929    -897.930    1155.731
  O     -779.885    -895.570    1155.353
  O     -782.419    -895.920    1155.498
  H     -782.304    -895.290    1154.763
  H     -779.976    -899.702    1156.114
  H     -780.013    -898.572    1157.447
  H     -778.946    -898.291    1156.092

 6  7  8  9  10  11  12  13  14  15  16  27  31  32  33  34  35 0
 6-311+G(2d,p)
 ****
 36  37 0
 6-311+G(2d,p)
 ****
 1  2  3  4  5  17  18  19  20  21  22  23  24  25 0
 3-21G
 ****
 26  28  29  30  38  39  40  41  42  43  44  45 0
 3-21G
 ****


