%nproc=1
%NoSave
%Mem=1900MB
#P OB98/GEN NMR

erre ene a

0 1
  C      159.907      87.875     259.051
  O      161.166      88.152     258.470
  H      159.657      86.828     258.859
  H      159.141      88.509     258.599
  H      159.941      88.039     260.131
  P      161.809      89.590     258.795
  C      162.046      90.487     256.340
  O      161.365      90.541     257.581
  C      162.334      91.899     255.827
  O      161.075      92.546     255.516
  C      163.078      92.783     256.829
  O      163.994      93.612     256.113
  C      161.978      93.631     257.441
  O      162.484      94.852     257.980
  C      161.010      93.781     256.258
  N      159.643      94.074     256.690
  C      159.368      95.396     257.052
  O      160.258      96.245     257.021
  N      158.107      95.715     257.483
  C      157.214      94.782     257.611
  N      155.986      95.160     258.065
  C      157.475      93.363     257.292
  C      158.695      93.086     256.833
  O      163.363      89.320     258.521
  O      161.499      90.105     260.159
  H      161.774      95.257     258.528
  H      163.531      88.776     257.733
  H      156.703      92.621     257.431
  H      158.971      92.072     256.565
  H      161.339      94.589     255.591
  H      161.493      93.081     258.257
  H      163.616      92.216     257.589
  H      162.886      91.820     254.883
  H      155.853      96.138     258.290
  H      161.449      89.946     255.600
  H      155.235      94.512     258.252
  H      162.983      89.940     256.489
  P      165.540      93.195     256.044
  C      166.437      94.584     258.023
  O      166.169      93.283     257.518
  O      166.341      93.856     254.972
  O      165.468      91.608     255.799
  H      166.184      91.368     255.175
  H      166.851      94.506     259.007
  H      165.527      95.146     258.062
  H      167.135      95.079     257.380

 6  7  8  9  10  11  12  13  14  15  16  26  30  31  32  33  35 0
 6-311+G(2d,p)
 ****
 37  38 0
 6-311+G(2d,p)
 ****
 1  2  3  4  5  17  18  19  20  21  22  23  24  25 0
 3-21G
 ****
 27  28  29  34  36  39  40  41  42  43  44  45  46 0
 3-21G
 ****


