%nproc=1
%NoSave
%Mem=1900MB
#P OB98/GEN NMR

erre ene a

0 1
  C     -264.565     -34.019     407.313
  O     -263.883     -34.186     406.083
  H     -264.672     -34.997     407.791
  H     -265.563     -33.602     407.151
  H     -263.995     -33.364     407.977
  P     -263.739     -32.914     405.118
  C     -261.187     -32.776     405.533
  O     -262.450     -32.122     405.642
  C     -260.284     -32.363     406.690
  O     -260.805     -32.861     407.938
  C     -258.872     -32.921     406.576
  O     -258.121     -32.208     405.615
  C     -258.397     -32.789     408.011
  O     -257.982     -31.449     408.301
  C     -259.679     -33.154     408.795
  N     -259.698     -34.547     409.231
  C     -258.687     -34.924     410.123
  O     -257.850     -34.108     410.499
  N     -258.642     -36.233     410.540
  C     -259.531     -37.079     410.125
  N     -259.429     -38.356     410.577
  C     -260.620     -36.717     409.196
  C     -260.640     -35.447     408.790
  O     -264.958     -32.060     404.941
  O     -263.241     -33.547     403.734
  H     -257.124     -31.331     407.847
  H     -264.003     -33.787     403.174
  H     -261.343     -37.454     408.881
  H     -261.409     -35.098     408.109
  H     -259.779     -32.513     409.683
  H     -257.554     -33.446     408.215
  H     -258.909     -33.987     406.328
  H     -260.271     -31.266     406.744
  H     -258.659     -38.562     411.203
  H     -260.747     -32.472     404.578
  H     -260.110     -39.076     410.392
  H     -261.318     -33.864     405.523
  P     -257.520     -32.956     404.329
  C     -258.602     -31.641     402.393
  O     -258.645     -32.822     403.191
  O     -257.018     -34.339     404.574
  O     -256.382     -31.946     403.825
  H     -255.588     -31.975     404.414
  H     -259.395     -31.666     401.675
  H     -257.662     -31.588     401.884
  H     -258.716     -30.782     403.021

 6  7  8  9  10  11  12  13  14  15  16  26  30  31  32  33  35 0
 6-311+G(2d,p)
 ****
 37  38 0
 6-311+G(2d,p)
 ****
 1  2  3  4  5  17  18  19  20  21  22  23  24  25 0
 3-21G
 ****
 27  28  29  34  36  39  40  41  42  43  44  45  46 0
 3-21G
 ****


