%nproc=1
%NoSave
%Mem=1900MB
#P OB98/GEN NMR

erre ene a

0 1
  C       86.418     178.979     142.590
  O       86.774     179.501     143.858
  H       87.128     179.351     141.842
  H       85.414     179.305     142.300
  H       86.460     177.887     142.603
  P       85.791     179.225     145.094
  C       83.310     179.827     145.535
  O       84.510     180.157     144.841
  C       82.341     181.005     145.497
  O       82.786     182.045     146.391
  C       82.240     181.654     144.121
  O       81.456     180.862     143.246
  C       81.654     183.005     144.484
  O       80.238     182.923     144.695
  C       82.393     183.317     145.807
  N       83.551     184.185     145.621
  C       83.400     185.509     146.044
  O       82.340     185.884     146.553
  N       84.450     186.377     145.867
  C       85.552     185.960     145.325
  N       86.551     186.875     145.175
  C       85.759     184.570     144.877
  C       84.726     183.745     145.051
  O       86.379     179.346     146.467
  O       85.229     177.752     144.808
  H       80.120     182.363     145.489
  H       85.807     177.080     145.220
  H       86.698     184.269     144.439
  H       84.792     182.704     144.746
  H       81.715     183.795     146.526
  H       81.832     183.740     143.701
  H       83.240     181.816     143.706
  H       81.356     180.658     145.844
  H       86.363     187.820     145.490
  H       83.588     179.597     146.572
  H       87.480     186.645     144.854
  H       82.841     178.937     145.098
  P       81.912     180.638     141.725
  C       82.950     182.144     139.906
  O       82.292     182.097     141.169
  O       80.949     179.864     140.883
  O       83.340     179.928     141.874
  H       83.248     178.982     142.157
  H       83.149     183.162     139.645
  H       82.323     181.701     139.161
  H       83.872     181.604     139.964

 6  7  8  9  10  11  12  13  14  15  16  26  30  31  32  33  35 0
 6-311+G(2d,p)
 ****
 37  38 0
 6-311+G(2d,p)
 ****
 1  2  3  4  5  17  18  19  20  21  22  23  24  25 0
 3-21G
 ****
 27  28  29  34  36  39  40  41  42  43  44  45  46 0
 3-21G
 ****


