%nproc=1
%NoSave
%Mem=1900MB
#P OB98/GEN NMR

erre ene a

0 1
  C     -395.239    -152.741      64.579
  O     -395.774    -151.499      64.133
  P     -397.343    -151.410      63.817
  C     -398.346    -150.948      66.220
  O     -398.181    -151.806      65.115
  C     -399.687    -150.206      66.092
  O     -400.786    -151.136      66.207
  C     -399.888    -149.136      67.161
  O     -399.322    -147.893      66.792
  C     -401.399    -149.098      67.282
  O     -401.969    -148.352      66.187
  C     -401.754    -150.599      67.154
  N     -401.724    -151.428      68.377
  C     -402.433    -151.026      69.506
  O     -403.103    -149.998      69.572
  N     -402.368    -151.859      70.591
  C     -401.822    -153.113      70.614
  O     -401.841    -153.839      71.595
  C     -401.214    -153.553      69.354
  C     -401.183    -152.706      68.318
  O     -397.594    -152.625      62.812
  O     -397.782    -150.100      63.233
  H     -401.793    -148.857      65.372
  H     -397.869    -152.293      61.936
  H     -402.815    -151.548      71.438
  H     -400.811    -154.553      69.312
  H     -400.734    -153.025      67.380
  H     -402.750    -150.724      66.712
  H     -401.715    -148.588      68.191
  H     -399.485    -149.481      68.121
  H     -399.733    -149.743      65.094
  H     -397.527    -150.226      66.282
  H     -398.321    -151.532      67.148
  P     -397.730    -147.747      66.670
  C     -397.573    -146.900      64.256
  O     -397.386    -147.998      65.124
  O     -396.924    -148.533      67.651
  O     -397.488    -146.168      66.826
  H     -397.256    -145.941      67.756
  H     -397.161    -147.148      63.273
  H     -397.058    -146.012      64.643
  H     -398.640    -146.689      64.144
  H     -394.187    -152.637      64.745
  H     -395.410    -153.491      63.835
  H     -395.718    -153.028      65.492

 3  4  5  6  7  8  9  10  11  12  13  23  28  29  30  31  32 0
 6-311+G(2d,p)
 ****
 33  34 0
 6-311+G(2d,p)
 ****
 1  2  14  15  16  17  18  19  20  21  22  24  25  26  27 0
 3-21G
 ****
 35  36  37  38  39  40  41  42  43  44  45 0
 3-21G
 ****


