%nproc=1
%NoSave
%Mem=1900MB
#P OB98/GEN NMR

erre ene a

0 1
  C     -218.675     326.010    -344.107
  O     -219.507     327.157    -343.931
  P     -218.831     328.523    -343.427
  C     -219.592     330.996    -343.410
  O     -219.982     329.631    -343.257
  C     -220.768     331.840    -343.908
  O     -221.275     331.283    -345.156
  C     -221.981     331.891    -342.957
  O     -222.014     332.902    -341.954
  C     -223.108     332.210    -343.930
  O     -223.167     333.628    -344.170
  C     -222.698     331.485    -345.210
  N     -226.626     329.105    -347.478
  C     -226.208     330.390    -347.508
  N     -225.150     330.940    -346.873
  C     -224.481     330.016    -346.162
  C     -224.793     328.668    -346.041
  C     -225.924     328.209    -346.744
  N     -226.352     326.908    -346.706
  N     -223.884     328.038    -345.219
  C     -223.056     328.992    -344.834
  N     -223.372     330.206    -345.385
  O     -217.617     328.964    -344.169
  O     -218.470     328.180    -341.902
  H     -223.829     333.766    -344.865
  H     -217.615     328.602    -341.672
  H     -226.808     331.065    -348.119
  H     -222.217     328.852    -344.157
  H     -222.914     332.079    -346.111
  H     -224.094     331.924    -343.536
  H     -222.149     330.909    -342.496
  H     -220.422     332.869    -344.106
  H     -218.762     331.056    -344.128
  H     -227.202     326.673    -347.196
  H     -225.874     326.241    -346.111
  H     -219.198     331.330    -342.451
  P     -221.806     332.549    -340.396
  C     -220.110     333.482    -338.643
  O     -220.865     333.711    -339.821
  O     -221.332     331.163    -340.121
  O     -223.243     332.901    -339.768
  H     -223.457     333.849    -339.773
  H     -219.381     334.296    -338.534
  H     -219.567     332.533    -338.696
  H     -220.766     333.491    -337.765
  H     -219.269     325.187    -344.444
  H     -218.212     325.759    -343.175
  H     -217.920     326.225    -344.834

 3  4  5  6  7  8  9  10  11  12  22  25  29  30  31  32 0
 6-311+G(2d,p)
 ****
 33  36  37 0
 6-311+G(2d,p)
 ****
 1  2  13  14  15  16  17  18  19  20  21  23  24  26 0
 3-21G
 ****
 27  28  34  35  38  39  40  41  42  43  44  45  46  47  48 0
 3-21G
 ****


