%nproc=1
%NoSave
%Mem=1900MB
#P OB98/GEN NMR

erre ene a

0 1
  C     -394.637      23.535     467.819
  O     -393.225      23.503     467.704
  H     -394.989      24.527     467.521
  H     -394.933      23.353     468.856
  H     -395.088      22.786     467.163
  P     -392.507      22.117     468.081
  C     -391.622      23.166     470.292
  O     -391.307      22.489     469.083
  C     -390.345      23.667     470.953
  O     -389.541      22.534     471.370
  C     -389.450      24.479     470.033
  O     -389.904      25.812     469.876
  C     -388.109      24.373     470.751
  O     -388.001      25.338     471.804
  C     -388.156      22.955     471.328
  N     -386.512      18.126     471.041
  C     -387.351      18.742     471.899
  N     -387.751      20.033     471.903
  C     -387.209      20.696     470.863
  C     -386.342      20.201     469.906
  C     -385.991      18.846     470.017
  N     -385.115      18.216     469.164
  N     -385.965      21.197     469.024
  C     -386.604      22.270     469.433
  N     -387.375      22.019     470.540
  O     -391.760      21.716     466.722
  O     -393.421      21.036     468.554
  H     -387.991      26.212     471.375
  H     -392.287      21.047     466.245
  H     -387.754      18.123     472.697
  H     -386.544      23.252     468.973
  H     -387.771      22.910     472.356
  H     -387.286      24.539     470.061
  H     -389.364      23.986     469.051
  H     -390.611      24.241     471.850
  H     -392.140      22.479     470.974
  H     -392.291      24.007     470.064
  H     -384.856      17.262     469.341
  H     -384.632      18.774     468.462
  P     -390.083      26.375     468.390
  C     -389.049      28.709     468.932
  O     -390.183      27.970     468.497
  O     -391.565      25.926     467.983
  O     -389.065      25.882     467.415
  H     -391.595      25.700     467.034
  H     -389.287      29.752     468.946
  H     -388.233      28.538     468.261
  H     -388.774      28.393     469.916

 6  7  8  9  10  11  12  13  14  15  25  28  32  33  34  35 0
 6-311+G(2d,p)
 ****
 36  37  40 0
 6-311+G(2d,p)
 ****
 1  2  3  4  5  16  17  18  19  20  21  22  23  24 0
 3-21G
 ****
 26  27  29  30  31  38  39 41  42  43  44  45  46  47  48 0
 3-21G
 ****


