%nproc=1
%NoSave
%Mem=1900MB
#P OB98/GEN NMR

erre ene a

0 1
  C      182.796     -39.606     215.504
  O      181.687     -39.360     216.375
  P      180.254     -39.937     215.949
  C      179.395     -37.541     215.420
  O      179.175     -38.762     216.107
  C      178.373     -36.489     215.866
  O      177.030     -36.862     215.498
  C      178.348     -36.265     217.371
  O      179.370     -35.367     217.789
  C      176.984     -35.612     217.547
  O      177.061     -34.214     217.201
  C      176.130     -36.369     216.523
  N      172.921     -37.730     220.192
  C      173.447     -36.490     219.883
  N      173.052     -35.458     220.659
  N      174.280     -36.280     218.900
  C      174.573     -37.398     218.197
  C      174.120     -38.680     218.404
  C      173.210     -38.903     219.505
  O      172.721     -39.981     219.835
  N      174.643     -39.551     217.489
  C      175.398     -38.798     216.711
  N      175.403     -37.484     217.112
  O      179.890     -40.916     217.163
  O      180.246     -40.656     214.641
  H      177.413     -34.171     216.290
  H      179.304     -41.628     216.853
  H      172.286     -37.837     220.963
  H      175.958     -39.152     215.856
  H      175.391     -35.726     216.035
  H      176.629     -35.661     218.579
  H      172.371     -35.540     221.402
  H      178.385     -37.215     217.917
  H      173.400     -34.536     220.428
  H      178.621     -35.542     215.366
  H      179.322     -37.692     214.340
  H      180.421     -37.208     215.606
  P      180.823     -35.977     218.092
  C      180.600     -37.041     220.450
  O      180.999     -35.925     219.683
  O      181.805     -34.836     217.554
  O      181.095     -37.293     217.445
  H      182.632     -35.236     217.226
  H      180.941     -36.896     221.480
  H      181.042     -37.960     220.059
  H      179.509     -37.125     220.451
  H      183.679     -39.164     215.917
  H      182.598     -39.177     214.544
  H      182.941     -40.661     215.400

 3  4  5  6  7  8  9  10  11  12  23  26  30  31 0
 6-311+G(2d,p)
 ****
 33  35  36  37  38 0
 6-311+G(2d,p)
 ****
 1  2  13  14  15  16  17  18  19  20  21  22  24  25 0
 3-21G
 ****
 27  28  29  32  34  39  40  41  42  43  44  45  46  47  48  49 0
 3-21G
 ****


