%nproc=1
%NoSave
%Mem=1900MB
#P OB98/GEN NMR

erre ene a

0 1
  C     -173.323      18.396      64.265
  O     -173.742      17.058      64.462
  H     -172.240      18.404      64.121
  H     -173.568      19.013      65.134
  H     -173.798      18.809      63.371
  P     -175.251      16.803      64.950
  C     -174.754      14.267      64.968
  O     -175.221      15.389      65.716
  C     -174.529      13.057      65.879
  O     -173.435      13.313      66.783
  C     -175.717      12.736      66.774
  O     -176.841      12.236      66.082
  C     -175.079      11.900      67.876
  O     -174.981      10.515      67.553
  C     -173.662      12.517      67.964
  N     -173.479      13.295      69.186
  C     -172.664      12.717      70.154
  O     -172.134      11.613      70.027
  N     -172.506      13.437      71.307
  C     -173.113      14.625      71.597
  O     -172.963      15.202      72.668
  C     -173.984      15.173      70.545
  C     -174.126      14.493      69.403
  O     -176.304      16.894      63.886
  O     -175.447      17.854      66.140
  H     -174.460      10.451      66.727
  H     -176.404      17.984      66.346
  H     -171.910      13.040      72.016
  H     -174.484      16.112      70.741
  H     -174.766      14.876      68.612
  H     -172.902      11.725      67.955
  H     -175.642      11.972      68.808
  H     -176.046      13.667      67.249
  H     -174.261      12.198      65.253
  H     -173.804      14.550      64.505
  H     -175.475      14.024      64.180
  P     -178.212      13.045      65.936
  C     -179.391      10.979      64.886
  O     -179.421      11.984      65.894
  O     -178.223      14.181      64.964
  O     -178.366      13.675      67.414
  H     -178.790      14.550      67.318
  H     -180.252      10.352      64.982
  H     -178.506      10.389      64.997
  H     -179.392      11.441      63.921

 6  7  8  9  10  11  12  13  14  15  16  26  31  32  33  34  35 0
 6-311+G(2d,p)
 ****
 36  37 0
 6-311+G(2d,p)
 ****
 1  2  3  4  5  17  18  19  20  21  22  23  24  25 0
 3-21G
 ****
 27  28  29  30  38  39  40  41  42  43  44  45 0
 3-21G
 ****


