%nproc=1
%NoSave
%Mem=1900MB
#P OB98/GEN NMR

erre ene a

0 1
  C      207.037     138.128    -288.961
  O      205.917     137.704    -288.183
  P      205.781     136.152    -287.808
  C      207.068     136.000    -285.579
  O      205.790     136.020    -286.208
  C      207.207     134.781    -284.671
  O      208.515     134.706    -284.070
  C      206.228     134.782    -283.507
  O      204.918     134.462    -283.943
  C      206.870     133.766    -282.573
  O      206.529     132.425    -282.958
  C      208.376     134.017    -282.806
  N      209.012     134.755    -281.725
  C      209.216     134.043    -280.537
  O      208.832     132.880    -280.434
  N      209.839     134.680    -279.489
  C      210.212     135.915    -279.615
  N      210.827     136.493    -278.549
  C      210.005     136.702    -280.847
  C      209.399     136.068    -281.849
  O      206.708     135.229    -288.528
  O      204.248     135.834    -288.170
  H      206.718     132.364    -283.918
  H      204.177     134.896    -288.437
  H      210.342     137.726    -280.906
  H      209.204     136.572    -282.788
  H      208.907     133.062    -282.918
  H      206.539     133.900    -281.539
  H      206.224     135.772    -283.029
  H      207.053     133.878    -285.282
  H      210.948     135.936    -277.711
  H      207.202     136.917    -284.997
  H      211.201     137.432    -278.565
  H      207.840     136.005    -286.354
  P      203.844     135.648    -284.016
  C      203.103     135.539    -286.500
  O      202.777     135.273    -285.148
  O      204.681     136.847    -284.680
  O      203.270     136.058    -282.698
  H      204.375     137.699    -284.317
  H      202.437     134.954    -287.139
  H      204.138     135.265    -286.722
  H      202.952     136.601    -286.711
  H      206.980     139.184    -289.123
  H      207.029     137.622    -289.904
  H      207.942     137.896    -288.440

 3  4  5  6  7  8  9  10  11  12  13  23  27  28  29  30  32 0
 6-311+G(2d,p)
 ****
 34  35 0
 6-311+G(2d,p)
 ****
 1  2  14  15  16  17  18  19  20  21  22  24  25  26 0
 3-21G
 ****
 31  33  36  37  38  39  40  41  42  43  44  45  46 0
 3-21G
 ****


