%nproc=1
%NoSave
%Mem=1900MB
#P OB98/GEN NMR

erre ene a

0 1
  C       -1.941      -1.367    -185.454
  O       -0.782      -1.651    -184.698
  H       -2.575      -2.256    -185.529
  H       -2.502      -0.575    -184.953
  H       -1.662      -1.024    -186.454
  P        0.125      -2.869    -185.216
  C        2.079      -1.535    -186.278
  O        1.643      -2.344    -185.196
  C        3.601      -1.475    -186.310
  O        4.091      -0.661    -185.226
  C        4.296      -2.822    -186.149
  O        4.294      -3.570    -187.357
  C        5.699      -2.370    -185.771
  O        6.422      -1.993    -186.957
  C        5.427      -1.131    -184.905
  N        7.988      -0.147    -180.563
  C        8.173       0.275    -181.836
  N        7.462      -0.034    -182.939
  C        6.451      -0.866    -182.636
  C        6.138      -1.379    -181.389
  C        6.963      -0.994    -180.319
  N        6.775      -1.443    -179.029
  N        5.024      -2.186    -181.459
  C        4.667      -2.163    -182.727
  N        5.505      -1.382    -183.480
  O       -0.215      -2.949    -186.781
  O       -0.111      -4.176    -184.538
  H        5.918      -1.267    -187.373
  H       -0.204      -3.884    -187.059
  H        9.005       0.960    -181.987
  H        3.814      -2.687    -183.140
  H        6.117      -0.314    -185.145
  H        6.280      -3.146    -185.268
  H        3.865      -3.395    -185.320
  H        3.899      -0.995    -187.252
  H        1.682      -0.522    -186.157
  H        7.266      -0.984    -178.282
  H        5.997      -2.072    -178.854
  H        1.693      -1.958    -187.212
  P        4.220      -5.170    -187.237
  C        1.644      -5.294    -187.523
  O        2.921      -5.605    -188.071
  O        3.774      -5.398    -185.716
  O        5.485      -5.889    -187.558
  H        4.071      -6.278    -185.412
  H        0.878      -5.642    -188.184
  H        1.556      -4.235    -187.402
  H        1.538      -5.772    -186.572

 6  7  8  9  10  11  12  13  14  15  25  28  32  33  34  35 0
 6-311+G(2d,p)
 ****
 36  39  40 0
 6-311+G(2d,p)
 ****
 1  2  3  4  5  16  17  18  19  20  21  22  23  24 0
 3-21G
 ****
 26  27  29  30  31  37  38  41  42  43  44  45  46  47  48 0
 3-21G
 ****


