%nproc=1
%NoSave
%Mem=1900MB
#P OB98/GEN NMR

erre ene a

0 1
  C       -8.046     -57.699      55.873
  O       -7.250     -58.838      55.614
  H       -8.174     -57.145      54.939
  H       -7.550     -57.048      56.596
  H       -9.032     -57.991      56.244
  P       -6.987     -59.883      56.801
  C       -5.812     -59.848      59.086
  O       -6.152     -59.101      57.928
  C       -5.289     -58.925      60.186
  O       -4.083     -58.273      59.712
  C       -6.283     -57.834      60.598
  O       -6.179     -57.636      62.007
  C       -5.776     -56.603      59.871
  O       -6.145     -55.394      60.532
  C       -4.269     -56.851      59.848
  N       -2.402     -52.389      58.391
  C       -2.910     -52.788      59.612
  N       -2.952     -51.855      60.587
  N       -3.342     -53.996      59.856
  C       -3.229     -54.832      58.795
  C       -2.746     -54.558      57.538
  C       -2.282     -53.212      57.275
  O       -1.835     -52.797      56.213
  N       -2.819     -55.663      56.726
  C       -3.348     -56.600      57.492
  N       -3.624     -56.142      58.753
  O       -6.390     -61.189      56.384
  O       -8.424     -60.074      57.474
  H       -7.063     -55.185      60.256
  H       -8.842     -60.901      57.168
  H       -2.091     -51.443      58.255
  H       -3.557     -57.616      57.183
  H       -3.777     -56.522      60.772
  H       -6.187     -56.578      58.854
  H       -2.620     -50.909      60.477
  H       -7.316     -58.075      60.330
  H       -3.298     -52.130      61.499
  H       -5.001     -59.539      61.047
  H       -5.037     -60.572      58.814
  H       -6.695     -60.391      59.441
  P       -7.385     -58.121      62.946
  C       -9.424     -57.050      64.099
  O       -8.422     -56.907      63.098
  O       -6.983     -58.779      64.224
  O       -8.182     -59.142      61.998
  H       -8.606     -59.823      62.555
  H      -10.050     -56.182      64.103
  H       -8.959     -57.159      65.056
  H      -10.016     -57.916      63.890

 6  7  8  9  10  11  12  13  14  15  26  29  33  34 0
 6-311+G(2d,p)
 ****
 36  38  39  40  41 0
 6-311+G(2d,p)
 ****
 1  2  3  4  5  16  17  18  19  20  21  22  23  24  25 0
 3-21G
 ****
 27  28  30  31  32  35  37  42  43  44  45  46  47 0
 3-21G
 ****
 48  49 0
 3-21G
 ****


