%nproc=1
%NoSave
%Mem=1900MB
#P OB98/GEN NMR

erre ene a

0 1
  C      126.732     102.183      64.057
  O      127.084     102.835      65.261
  H      126.354     101.187      64.296
  H      127.616     102.081      63.423
  H      125.954     102.738      63.526
  P      127.349     104.416      65.177
  C      124.909     105.170      65.636
  O      125.970     105.084      64.697
  C      124.018     106.366      65.318
  O      122.953     106.473      66.288
  C      124.741     107.709      65.326
  O      125.394     107.959      64.088
  C      123.572     108.658      65.527
  O      122.857     108.819      64.282
  C      122.705     107.887      66.531
  N      121.044     110.216      70.718
  C      120.504     110.188      69.447
  N      119.364     110.888      69.264
  N      121.035     109.539      68.444
  C      122.186     108.905      68.767
  C      122.823     108.863      69.987
  C      122.217     109.571      71.090
  O      122.650     109.618      72.239
  N      123.971     108.119      69.932
  C      124.042     107.729      68.675
  N      122.984     108.182      67.926
  O      128.301     104.547      63.895
  O      127.980     105.020      66.385
  H      122.341     108.004      64.143
  H      129.220     104.675      64.197
  H      120.600     110.740      71.452
  H      124.828     107.115      68.260
  H      121.634     108.063      66.377
  H      123.887     109.655      65.841
  H      118.915     111.427      69.987
  H      125.432     107.793      66.173
  H      118.949     110.878      68.341
  H      123.550     106.186      64.341
  H      125.329     105.285      66.640
  H      124.322     104.247      65.595
  P      126.119     109.375      63.885
  C      128.503     108.369      64.046
  O      127.555     109.272      64.597
  O      125.287     110.337      64.856
  O      126.129     109.889      62.487
  H      124.773     110.978      64.328
  H      129.406     108.406      64.619
  H      128.711     108.645      63.033
  H      128.106     107.376      64.071

 6  7  8  9  10  11  12  13  14  15  26  29  33  34 0
 6-311+G(2d,p)
 ****
 36  38  39  40  41 0
 6-311+G(2d,p)
 ****
 1  2  3  4  5  16  17  18  19  20  21  22  23  24  25 0
 3-21G
 ****
 27  28  30  31  32  35  37  42  43  44  45  46  47 0
 3-21G
 ****
 48  49 0
 3-21G
 ****


