%nproc=1
%NoSave
%Mem=1900MB
#P OB98/GEN NMR

erre ene a

0 1
  C      505.156    -500.028     705.253
  O      504.772    -501.218     705.915
  H      505.410    -499.273     706.009
  H      504.323    -499.645     704.654
  H      506.026    -500.194     704.621
  P      504.443    -502.518     705.036
  C      501.911    -502.048     705.083
  O      503.066    -502.213     704.266
  C      500.834    -501.265     704.341
  O      500.806    -501.704     702.956
  C      499.428    -501.441     704.923
  O      498.736    -500.201     704.839
  C      498.785    -502.447     703.986
  O      497.366    -502.328     703.953
  C      499.458    -502.106     702.651
  N      496.515    -505.061     699.805
  C      496.199    -503.935     700.537
  N      494.905    -503.543     700.537
  N      497.081    -503.242     701.215
  C      498.342    -503.731     701.120
  C      498.778    -504.839     700.424
  C      497.787    -505.603     699.680
  O      498.006    -506.614     699.019
  N      500.124    -505.031     700.585
  C      500.505    -504.049     701.390
  N      499.451    -503.242     701.741
  O      504.463    -503.814     705.780
  O      505.533    -502.483     703.868
  H      497.159    -501.488     703.480
  H      506.261    -503.100     704.057
  H      495.796    -505.556     699.306
  H      501.507    -503.879     701.737
  H      498.957    -501.279     702.133
  H      499.041    -503.474     704.301
  H      494.179    -504.017     700.021
  H      499.439    -501.798     705.960
  H      494.656    -502.708     701.055
  H      501.120    -500.201     704.331
  H      502.207    -501.508     705.991
  H      501.530    -503.039     705.377
  P      498.830    -499.183     706.077
  C      496.350    -499.473     706.694
  O      497.698    -499.577     707.142
  O      498.896    -497.726     705.716
  O      500.184    -499.649     706.817
  H      500.589    -498.867     707.248
  H      495.688    -499.759     707.485
  H      496.203    -500.119     705.854
  H      496.146    -498.462     706.407

 6  7  8  9  10  11  12  13  14  15  26  29  33  34 0
 6-311+G(2d,p)
 ****
 36  38  39  40  41 0
 6-311+G(2d,p)
 ****
 1  2  3  4  5  16  17  18  19  20  21  22  23  24  25 0
 3-21G
 ****
 27  28  30  31  32  35  37  42  43  44  45  46  47 0
 3-21G
 ****
 48  49 0
 3-21G
 ****


