%nproc=1
%NoSave
%Mem=1900MB
#P OB98/GEN NMR

erre ene a

0 1
  C     -719.534     -23.454    -313.762
  O     -719.759     -22.500    -312.738
  P     -719.115     -22.793    -311.293
  C     -717.312     -20.922    -311.393
  O     -717.576     -22.321    -311.365
  C     -716.463     -20.508    -310.188
  O     -717.155     -20.893    -308.967
  C     -715.065     -21.150    -310.141
  O     -714.182     -20.174    -309.565
  C     -715.286     -22.314    -309.191
  O     -714.090     -22.863    -308.663
  C     -716.226     -21.675    -308.188
  N     -718.144     -22.650    -303.543
  C     -717.565     -21.546    -304.065
  N     -717.084     -21.358    -305.312
  C     -717.263     -22.461    -306.067
  C     -717.829     -23.660    -305.672
  C     -718.289     -23.732    -304.337
  N     -718.872     -24.871    -303.811
  N     -717.826     -24.566    -306.708
  C     -717.266     -23.929    -307.712
  N     -716.930     -22.647    -307.372
  O     -719.000     -24.387    -311.263
  O     -719.897     -22.260    -310.133
  H     -713.672     -22.236    -308.040
  H     -719.211     -24.737    -310.380
  H     -717.463     -20.704    -303.390
  H     -717.064     -24.352    -308.688
  H     -715.697     -20.992    -307.505
  H     -715.792     -23.125    -309.734
  H     -714.686     -21.435    -311.126
  H     -716.373     -19.417    -310.181
  H     -718.254     -20.367    -311.349
  H     -718.981     -24.893    -302.810
  H     -718.786     -25.722    -304.338
  H     -716.812     -20.668    -312.331
  P     -712.744     -19.953    -310.235
  C     -713.589     -18.103    -311.810
  O     -713.076     -19.415    -311.722
  O     -712.295     -21.469    -310.532
  O     -711.764     -19.167    -309.433
  H     -712.990     -21.955    -311.005
  H     -713.684     -17.838    -312.867
  H     -712.909     -17.395    -311.322
  H     -714.578     -18.056    -311.350
  H     -720.016     -23.132    -314.661
  H     -719.933     -24.400    -313.462
  H     -718.483     -23.549    -313.936

 3  4  5  6  7  8  9  10  11  12  22  25  29  30  31  32 0
 6-311+G(2d,p)
 ****
 33  36  37 0
 6-311+G(2d,p)
 ****
 1  2  13  14  15  16  17  18  19  20  21  23  24  26 0
 3-21G
 ****
 27  28  34  35  38  39  40  41  42  43  44  45  46  47  48 0
 3-21G
 ****


