%nproc=1
%NoSave
%Mem=1900MB
#P OB98/GEN NMR

erre ene a

0 1
  C     -106.016     -32.861       0.400
  O     -105.993     -34.052      -0.398
  P     -107.393     -34.715      -0.802
  C     -109.120     -34.420      -2.726
  O     -107.805     -34.168      -2.252
  C     -109.101     -34.667      -4.238
  O     -108.659     -33.497      -4.965
  C     -108.170     -35.794      -4.663
  O     -108.788     -37.068      -4.519
  C     -107.979     -35.478      -6.138
  O     -109.115     -35.948      -6.892
  C     -107.930     -33.944      -6.137
  N     -103.977     -32.497      -8.943
  C     -105.217     -32.969      -9.327
  N     -105.438     -33.064     -10.657
  N     -106.154     -33.319      -8.486
  C     -105.800     -33.154      -7.192
  C     -104.603     -32.696      -6.683
  C     -103.568     -32.327      -7.626
  O     -102.446     -31.914      -7.342
  N     -104.616     -32.677      -5.313
  C     -105.821     -33.102      -4.990
  N     -106.574     -33.421      -6.093
  O     -108.433     -33.970       0.166
  O     -107.444     -36.197      -0.628
  H     -109.906     -35.550      -6.481
  H     -109.197     -34.548       0.338
  H     -103.289     -32.247      -9.634
  H     -106.195     -33.193      -3.976
  H     -108.416     -33.508      -7.017
  H     -107.096     -35.969      -6.557
  H     -104.782     -32.765     -11.360
  H     -107.210     -35.737      -4.135
  H     -106.352     -33.378     -10.957
  H     -110.124     -34.906      -4.556
  H     -109.776     -33.576      -2.497
  H     -109.535     -35.275      -2.185
  P     -108.654     -37.811      -3.103
  C     -110.441     -37.999      -1.229
  O     -109.778     -37.170      -2.159
  O     -107.281     -37.225      -2.523
  O     -108.633     -39.299      -3.179
  H     -106.841     -37.897      -1.967
  H     -111.047     -37.372      -0.568
  H     -109.723     -38.559      -0.621
  H     -111.103     -38.697      -1.752
  H     -105.013     -32.538       0.588
  H     -106.505     -33.064       1.330
  H     -106.547     -32.092      -0.122

 3  4  5  6  7  8  9  10  11  12  23  26  30  31 0
 6-311+G(2d,p)
 ****
 33  35  36  37  38 0
 6-311+G(2d,p)
 ****
 1  2  13  14  15  16  17  18  19  20  21  22  24  25 0
 3-21G
 ****
 27  28  29  32  34  39  40  41  42  43  44  45  46  47  48  49 0
 3-21G
 ****


