%nproc=1
%NoSave
%Mem=1900MB
#P OB98/GEN NMR

erre ene a

0 1
  C     -773.778     168.022     245.880
  O     -773.118     168.668     246.948
  H     -774.847     167.966     246.112
  H     -773.404     166.998     245.766
  H     -773.653     168.575     244.945
  P     -771.563     169.009     246.792
  C     -771.870     171.556     247.073
  O     -771.460     170.500     246.210
  C     -772.231     172.793     246.247
  O     -773.379     172.515     245.405
  C     -772.617     174.006     247.083
  O     -771.481     174.626     247.649
  C     -773.354     174.847     246.056
  O     -772.437     175.574     245.231
  C     -774.102     173.765     245.242
  N     -775.499     173.621     245.633
  C     -776.449     174.176     244.775
  O     -776.145     174.794     243.761
  N     -777.753     174.024     245.153
  C     -778.195     173.482     246.330
  O     -779.379     173.453     246.667
  C     -777.157     172.930     247.206
  C     -775.880     173.020     246.834
  O     -770.745     167.993     246.065
  O     -771.059     169.186     248.312
  H     -772.120     176.331     245.763
  H     -770.550     168.394     248.568
  H     -778.454     174.438     244.557
  H     -777.460     172.476     248.145
  H     -775.085     172.621     247.467
  H     -774.069     173.998     244.171
  H     -774.019     175.571     246.522
  H     -773.319     173.710     247.874
  H     -771.379     173.029     245.592
  H     -771.045     171.798     247.745
  H     -772.733     171.221     247.664
  P     -771.004     174.243     249.126
  C     -768.451     174.429     248.892
  O     -769.561     173.543     249.018
  O     -772.010     173.490     249.947
  O     -770.671     175.652     249.805
  H     -771.243     175.792     250.582
  H     -767.547     173.861     248.828
  H     -768.409     175.072     249.746
  H     -768.565     175.019     248.007

 6  7  8  9  10  11  12  13  14  15  16  26  31  32  33  34  35 0
 6-311+G(2d,p)
 ****
 36  37 0
 6-311+G(2d,p)
 ****
 1  2  3  4  5  17  18  19  20  21  22  23  24  25 0
 3-21G
 ****
 27  28  29  30  38  39  40  41  42  43  44  45 0
 3-21G
 ****


