%nproc=1
%NoSave
%Mem=1900MB
#P OB98/GEN NMR

erre ene a

0 1
  C       49.864     -84.257     349.897
  O       48.524     -84.682     349.768
  H       50.362     -84.371     348.931
  H       50.386     -84.878     350.632
  H       49.916     -83.207     350.196
  P       47.520     -84.449     350.993
  C       46.287     -86.666     350.501
  O       46.178     -85.260     350.652
  C       45.624     -87.128     349.197
  O       46.112     -86.288     348.104
  C       45.932     -88.590     348.812
  O       44.798     -89.079     348.084
  C       47.134     -88.401     347.905
  O       47.464     -89.567     347.190
  C       46.654     -87.181     347.105
  N       47.678     -86.509     346.316
  C       47.591     -86.601     344.931
  O       46.708     -87.208     344.324
  N       48.579     -85.959     344.228
  C       49.611     -85.244     344.765
  O       50.447     -84.666     344.081
  C       49.652     -85.188     346.234
  C       48.697     -85.807     346.931
  O       47.312     -83.029     351.404
  O       48.161     -85.317     352.179
  H       48.635     -84.727     352.795
  H       46.850     -89.659     346.432
  H       48.531     -86.013     343.222
  H       50.464     -84.636     346.690
  H       48.697     -85.773     348.017
  H       45.826     -87.468     346.451
  H       48.017     -88.155     348.501
  H       46.114     -89.233     349.679
  H       44.544     -86.957     349.269
  H       45.794     -87.142     351.354
  H       47.347     -86.946     350.501
  P       44.114     -90.508     348.364
  C       43.808     -91.597     346.034
  O       43.196     -90.878     347.098
  O       43.396     -90.589     349.674
  O       45.310     -91.571     348.296
  H       45.087     -92.347     348.838
  H       43.088     -91.775     345.263
  H       44.176     -92.532     346.401
  H       44.621     -91.025     345.638

 6  7  8  9  10  11  12  13  14  15  16  27  31  32  33  34  35 0
 6-311+G(2d,p)
 ****
 36  37 0
 6-311+G(2d,p)
 ****
 1  2  3  4  5  17  18  19  20  21  22  23  24  25 0
 3-21G
 ****
 26  28  29  30  38  39  40  41  42  43  44  45 0
 3-21G
 ****


