%nproc=1
%NoSave
%Mem=1900MB
#P OB98/GEN NMR

erre ene a

0 1
  C        0.221    -207.739     273.818
  O        0.056    -208.464     272.590
  P       -0.789    -209.829     272.580
  C        1.343    -211.299     272.940
  O        0.033    -210.952     273.379
  C        2.056    -212.124     274.024
  O        1.213    -213.232     274.441
  C        3.352    -212.776     273.564
  O        4.433    -211.850     273.521
  C        3.551    -213.854     274.625
  O        4.154    -213.308     275.811
  C        2.090    -214.288     274.905
  N        1.752    -215.571     274.293
  C        1.643    -216.653     275.162
  O        1.867    -216.587     276.370
  N        1.289    -217.849     274.579
  C        1.112    -218.069     273.238
  O        0.810    -219.167     272.777
  C        1.327    -216.909     272.372
  C        1.636    -215.729     272.923
  O       -0.637    -210.316     271.062
  O       -2.238    -209.699     272.952
  H        4.019    -213.971     276.517
  H       -1.407    -210.844     270.814
  H        1.181    -218.650     275.191
  H        1.219    -217.045     271.303
  H        1.801    -214.860     272.289
  H        1.915    -214.357     275.990
  H        4.185    -214.672     274.281
  H        3.201    -213.266     272.584
  H        2.231    -211.485     274.897
  H        1.924    -210.387     272.760
  H        1.273    -211.872     272.003
  P        4.918    -211.400     272.038
  C        7.397    -212.207     272.173
  O        6.096    -212.413     271.661
  O        5.650    -210.011     272.387
  O        3.803    -211.301     271.058
  H        6.078    -210.028     273.250
  H        7.379    -211.767     273.173
  H        7.961    -211.551     271.484
  H        7.915    -213.186     272.225
  H        0.807    -206.862     273.638
  H        0.718    -208.359     274.534
  H       -0.739    -207.455     274.196

 3  4  5  6  7  8  9  10  11  12  13  23  28  29  30  31  32 0
 6-311+G(2d,p)
 ****
 33  34 0
 6-311+G(2d,p)
 ****
 1  2  14  15  16  17  18  19  20  21  22  24  25  26 0
 3-21G
 ****
 27  35  36  37  38  39  40  41  42  43  44  45 0
 3-21G
 ****


