%nproc=1
%NoSave
%Mem=1900MB
#P OB98/GEN NMR

erre ene a

0 1
  C        0.162       1.648       5.607
  O       -1.117       2.296       5.600
  P       -1.303       3.885       5.474
  C       -0.175       4.476       3.220
  O       -1.398       4.254       3.914
  C       -0.287       5.696       2.301
  O        1.001       6.005       1.718
  C       -1.205       5.523       1.101
  O       -2.574       5.545       1.460
  C       -0.768       6.692       0.220
  O       -1.431       7.907       0.596
  C        0.737       6.795       0.536
  N        1.579       6.378      -0.572
  C        1.700       7.272      -1.639
  O        1.049       8.316      -1.654
  N        2.546       6.950      -2.672
  C        3.132       5.794      -2.689
  N        3.972       5.538      -3.727
  C        2.923       4.768      -1.650
  C        2.145       5.125      -0.630
  O       -0.276       4.675       6.215
  O       -2.773       4.185       6.030
  H       -2.813       5.097       6.372
  H       -2.391       7.743       0.509
  H        3.399       3.801      -1.724
  H        1.950       4.436       0.185
  H        0.993       7.824       0.815
  H       -0.990       6.517      -0.837
  H       -0.967       4.579       0.596
  H       -0.609       6.551       2.909
  H        4.101       6.267      -4.417
  H        0.042       3.592       2.610
  H        4.495       4.680      -3.824
  H        0.633       4.605       3.946
  P       -3.510       4.406       0.828
  C       -3.189       2.242       2.225
  O       -3.944       3.419       2.013
  O       -2.496       3.529      -0.049
  O       -4.637       4.922      -0.004
  H       -2.930       3.255      -0.877
  H       -3.271       1.960       3.278
  H       -2.134       2.388       1.978
  H       -3.598       1.437       1.611
  H        0.026       0.591       5.700
  H        0.739       2.008       6.433
  H        0.675       1.862       4.693

 3  4  5  6  7  8  9  10  11  12  13  24  27  28  29  30  32 0
 6-311+G(2d,p)
 ****
 34  35 0
 6-311+G(2d,p)
 ****
 1  2  14  15  16  17  18  19  20  21  22  23  25  26 0
 3-21G
 ****
 31  33  36  37  38  39  40  41  42  43  44  45  46 0
 3-21G
 ****


