%nproc=1
%NoSave
%Mem=1900MB
#P OB98/GEN NMR

erre ene a

0 1
  C      -99.739     -18.563      27.849
  O     -100.257     -19.331      26.771
  P      -99.538     -20.721      26.416
  C      -98.325     -21.422      24.234
  O      -98.501     -20.422      25.226
  C      -97.134     -21.101      23.330
  O      -97.412     -19.874      22.602
  C      -95.809     -20.899      24.071
  O      -94.765     -21.368      23.210
  C      -95.710     -19.388      24.192
  O      -94.375     -18.949      24.412
  C      -96.314     -18.970      22.854
  N      -94.921     -14.048      22.906
  C      -94.198     -15.188      22.859
  N      -94.641     -16.462      22.846
  C      -95.983     -16.499      22.892
  C      -96.852     -15.424      22.978
  C      -96.272     -14.142      22.980
  N      -97.006     -12.981      23.018
  N      -98.159     -15.860      23.034
  C      -98.082     -17.173      22.983
  N      -96.789     -17.604      22.873
  O     -100.705     -21.545      25.694
  O      -98.986     -21.466      27.581
  H      -94.091     -19.258      25.295
  H     -100.981     -22.292      26.258
  H      -93.120     -15.058      22.818
  H      -98.923     -17.852      23.025
  H      -95.600     -19.068      22.026
  H      -96.325     -19.043      25.031
  H      -95.758     -21.402      25.043
  H      -97.040     -21.902      22.588
  H      -99.228     -21.468      23.619
  H      -96.527     -12.107      22.876
  H      -98.010     -13.036      22.882
  H      -98.182     -22.394      24.715
  P      -93.333     -21.631      23.883
  C      -91.099     -20.322      24.032
  O      -92.446     -20.329      23.597
  O      -92.682     -22.750      22.940
  O      -93.397     -22.079      25.306
  H      -92.050     -23.289      23.448
  H      -90.504     -19.738      23.324
  H      -90.683     -21.333      24.094
  H      -91.043     -19.850      25.016
  H     -100.319     -17.671      27.963
  H      -98.721     -18.303      27.645
  H      -99.787     -19.137      28.751

 3  4  5  6  7  8  9  10  11  12  22  25  29  30  31  32 0
 6-311+G(2d,p)
 ****
 33  36  37 0
 6-311+G(2d,p)
 ****
 1  2  13  14  15  16  17  18  19  20  21  23  24  26 0
 3-21G
 ****
 27  28  34  35  38  39  40  41  42  43  44  45  46  47  48 0
 3-21G
 ****


