%nproc=1
%NoSave
%Mem=1900MB
#P OB98/GEN NMR

erre ene a

0 1
  C     -101.584    -131.598     -33.735
  O     -102.186    -131.097     -32.561
  H     -102.361    -132.024     -34.375
  H     -100.868    -132.386     -33.481
  H     -101.078    -130.800     -34.285
  P     -101.294    -130.251     -31.532
  C     -102.763    -128.130     -31.620
  O     -102.276    -129.201     -30.823
  C     -104.098    -127.614     -31.074
  O     -105.146    -128.580     -31.404
  C     -104.129    -127.427     -29.542
  O     -105.044    -126.359     -29.264
  C     -104.692    -128.767     -29.100
  O     -105.075    -128.775     -27.751
  C     -105.786    -128.938     -30.162
  N     -106.372    -130.274     -30.248
  C     -107.481    -130.546     -29.454
  O     -108.008    -129.743     -28.686
  N     -107.990    -131.816     -29.561
  C     -107.520    -132.804     -30.373
  O     -108.037    -133.910     -30.452
  C     -106.341    -132.461     -31.182
  C     -105.834    -131.227     -31.090
  O     -100.039    -129.672     -32.090
  O     -100.989    -131.298     -30.354
  H     -100.082    -131.644     -30.453
  H     -105.529    -129.626     -27.553
  H     -108.797    -132.029     -29.000
  H     -105.935    -133.226     -31.828
  H     -104.970    -130.939     -31.680
  H     -106.585    -128.212     -29.991
  H     -103.928    -129.547     -29.197
  H     -103.146    -127.187     -29.122
  H     -104.356    -126.679     -31.587
  H     -102.904    -128.501     -32.644
  H     -102.024    -127.322     -31.633
  P     -105.171    -125.653     -27.829
  C     -104.681    -123.291     -28.770
  O     -105.596    -124.122     -28.061
  O     -103.963    -125.814     -26.964
  O     -106.464    -126.310     -27.145
  H     -106.378    -126.268     -26.175
  H     -105.086    -122.304     -28.853
  H     -104.518    -123.693     -29.748
  H     -103.752    -123.252     -28.241

 6  7  8  9  10  11  12  13  14  15  16  27  31  32  33  34  35 0
 6-311+G(2d,p)
 ****
 36  37 0
 6-311+G(2d,p)
 ****
 1  2  3  4  5  17  18  19  20  21  22  23  24  25 0
 3-21G
 ****
 26  28  29  30  38  39  40  41  42  43  44  45 0
 3-21G
 ****


