%nproc=1
%NoSave
%Mem=1900MB
#P OB98/GEN NMR

erre ene a

0 1
  C       97.424       7.008    -148.307
  O       96.561       8.086    -148.008
  H       97.682       6.498    -147.377
  H       98.340       7.383    -148.768
  H       96.932       6.298    -148.976
  P       95.985       8.920    -149.252
  C       94.242       7.307    -150.294
  O       94.466       8.434    -149.459
  C       93.566       7.727    -151.597
  O       93.603       6.605    -152.530
  C       92.096       8.144    -151.441
  O       91.832       9.197    -152.377
  C       91.342       6.906    -151.897
  O       90.007       7.196    -152.305
  C       92.260       6.429    -153.021
  N       90.254       3.503    -156.588
  C       90.409       4.875    -156.535
  N       89.960       5.580    -157.596
  N       90.956       5.502    -155.529
  C       91.390       4.671    -154.551
  C       91.293       3.302    -154.481
  C       90.660       2.620    -155.591
  O       90.477       1.411    -155.686
  N       91.829       2.829    -153.309
  C       92.249       3.908    -152.675
  N       92.005       5.050    -153.388
  O       96.760       8.276    -150.494
  O       96.178      10.397    -149.177
  H       89.575       6.351    -152.545
  H       97.566       8.790    -150.693
  H       89.813       3.072    -157.381
  H       92.728       3.920    -151.705
  H       92.147       7.027    -153.934
  H       91.298       6.169    -151.086
  H       89.570       5.161    -158.426
  H       91.823       8.467    -150.432
  H       90.104       6.582    -157.595
  H       94.154       8.532    -152.052
  H       93.595       6.598    -149.766
  H       95.200       6.822    -150.509
  P       91.040      10.488    -151.856
  C       92.528      11.873    -150.234
  O       92.110      11.646    -151.571
  O       90.588      10.056    -150.381
  O       89.871      10.875    -152.699
  H       89.773      10.529    -150.132
  H       93.238      12.673    -150.213
  H       92.980      10.984    -149.846
  H       91.681      12.133    -149.635

 6  7  8  9  10  11  12  13  14  15  26  29  33  34 0
 6-311+G(2d,p)
 ****
 36  38  39  40  41 0
 6-311+G(2d,p)
 ****
 1  2  3  4  5  16  17  18  19  20  21  22  23  24  25 0
 3-21G
 ****
 27  28  30  31  32  35  37  42  43  44  45  46  47 0
 3-21G
 ****
 48  49 0
 3-21G
 ****


