%nproc=1
%NoSave
%Mem=1900MB
#P OB98/GEN NMR

erre ene a

0 1
  C      301.430     175.839    -389.035
  O      300.405     176.551    -389.701
  P      300.364     176.658    -391.307
  C      301.029     179.157    -391.418
  O      300.011     178.190    -391.619
  C      300.413     180.542    -391.205
  O      299.594     180.867    -392.355
  C      299.528     180.655    -389.956
  O      299.696     181.977    -389.436
  C      298.129     180.473    -390.520
  O      297.126     181.015    -389.671
  C      298.269     181.177    -391.872
  N      297.249     180.760    -392.829
  C      296.058     181.490    -392.867
  O      295.871     182.433    -392.101
  N      295.098     181.129    -393.777
  C      295.275     180.082    -394.524
  N      294.316     179.803    -395.451
  C      296.467     179.221    -394.438
  C      297.411     179.629    -393.596
  O      299.482     175.664    -391.980
  O      301.900     176.577    -391.742
  H      297.151     180.533    -388.821
  H      302.225     175.647    -391.838
  H      296.554     178.343    -395.061
  H      298.333     179.075    -393.486
  H      298.231     182.265    -391.740
  H      297.922     179.405    -390.648
  H      299.788     179.925    -389.184
  H      301.226     181.279    -391.162
  H      293.603     180.509    -395.596
  H      301.658     179.186    -392.312
  H      294.526     179.226    -396.259
  H      301.652     178.867    -390.569
  P      299.443     182.212    -387.863
  C      298.491     184.509    -388.596
  O      299.209     183.782    -387.628
  O      300.924     182.004    -387.269
  O      298.494     181.276    -387.197
  H      300.855     181.721    -386.339
  H      298.421     185.551    -388.271
  H      297.478     184.113    -388.704
  H      299.007     184.480    -389.563
  H      301.272     175.891    -387.978
  H      302.379     176.271    -389.275
  H      301.415     174.816    -389.348

 3  4  5  6  7  8  9  10  11  12  13  23  27  28  29  30  32 0
 6-311+G(2d,p)
 ****
 34  35 0
 6-311+G(2d,p)
 ****
 1  2  14  15  16  17  18  19  20  21  22  24  25  26 0
 3-21G
 ****
 31  33  36  37  38  39  40  41  42  43  44  45  46 0
 3-21G
 ****


