%nproc=1
%NoSave
%Mem=1900MB
#P OB98/GEN NMR

erre ene a

0 1
  C      295.704    -180.943      94.197
  O      296.080    -182.127      93.520
  H      294.980    -181.201      94.974
  H      295.240    -180.234      93.506
  H      296.576    -180.485      94.671
  P      297.052    -182.005      92.253
  C      298.934    -181.031      93.734
  O      298.553    -182.046      92.819
  C      300.457    -180.830      93.721
  O      300.765    -179.535      94.310
  C      301.228    -181.892      94.528
  O      302.513    -182.045      93.912
  C      301.355    -181.211      95.875
  O      302.309    -181.850      96.686
  C      301.648    -179.773      95.430
  N      301.449    -178.806      96.498
  C      302.541    -177.992      96.809
  O      303.606    -178.125      96.203
  N      302.417    -177.073      97.818
  C      301.315    -177.019      98.504
  N      301.259    -176.098      99.503
  C      300.158    -177.899      98.250
  C      300.289    -178.757      97.237
  O      296.765    -180.877      91.319
  O      296.905    -183.421      91.518
  H      302.325    -181.452      97.588
  H      296.356    -183.321      90.718
  H      299.271    -177.829      98.861
  H      299.491    -179.446      96.972
  H      302.679    -179.679      95.062
  H      300.406    -181.248      96.418
  H      300.711    -182.854      94.569
  H      300.799    -180.797      92.680
  H      302.082    -175.523      99.655
  H      298.608    -181.342      94.730
  H      300.466    -175.976     100.116
  H      298.438    -180.085      93.479
  P      302.862    -183.254      92.915
  C      301.427    -182.770      90.826
  O      302.731    -182.748      91.400
  O      302.111    -184.513      93.203
  O      304.440    -183.493      93.091
  H      304.637    -184.436      92.939
  H      301.474    -182.411      89.819
  H      300.775    -182.143      91.398
  H      301.052    -183.772      90.830

 6  7  8  9  10  11  12  13  14  15  16  26  30  31  32  33  35 0
 6-311+G(2d,p)
 ****
 37  38 0
 6-311+G(2d,p)
 ****
 1  2  3  4  5  17  18  19  20  21  22  23  24  25 0
 3-21G
 ****
 27  28  29  34  36  39  40  41  42  43  44  45  46 0
 3-21G
 ****


