%nproc=1
%NoSave
%Mem=1900MB
#P OB98/GEN NMR

erre ene a

0 1
  C     -465.649     536.313    -132.458
  O     -465.109     537.472    -133.080
  P     -463.990     538.299    -132.269
  C     -462.992     539.790    -134.192
  O     -462.854     538.660    -133.341
  C     -463.309     539.335    -135.624
  O     -464.607     538.707    -135.662
  C     -463.367     540.458    -136.649
  O     -462.073     540.903    -137.023
  C     -464.166     539.799    -137.763
  O     -463.312     538.956    -138.557
  C     -465.173     538.945    -136.966
  N     -466.501     539.553    -136.871
  C     -467.057     540.017    -138.063
  O     -466.483     539.939    -139.146
  N     -468.292     540.605    -137.952
  C     -468.976     540.817    -136.792
  O     -470.066     541.391    -136.747
  C     -468.333     540.331    -135.563
  C     -467.141     539.729    -135.659
  O     -463.353     537.130    -131.381
  O     -464.554     539.446    -131.502
  H     -463.440     536.258    -131.807
  H     -463.850     538.661    -139.322
  H     -468.723     540.930    -138.805
  H     -468.838     540.491    -134.626
  H     -466.641     539.377    -134.769
  H     -465.284     537.955    -137.435
  H     -464.630     540.526    -138.441
  H     -463.938     541.307    -136.236
  H     -462.559     538.584    -135.918
  H     -462.053     540.353    -134.185
  H     -463.790     540.433    -133.811
  P     -461.707     542.434    -136.685
  C     -459.262     542.101    -135.822
  O     -460.610     542.375    -135.513
  O     -463.043     542.918    -135.941
  O     -461.343     543.241    -137.879
  H     -463.396     542.248    -135.324
  H     -458.632     542.454    -134.997
  H     -458.940     542.600    -136.741
  H     -459.125     541.017    -135.933
  H     -466.375     535.867    -133.105
  H     -466.115     536.588    -131.535
  H     -464.863     535.612    -132.266

 3  4  5  6  7  8  9  10  11  12  13  24  28  29  30  31  32 0
 6-311+G(2d,p)
 ****
 33  34 0
 6-311+G(2d,p)
 ****
 1  2  14  15  16  17  18  19  20  21  22  23  25  26  27 0
 3-21G
 ****
 35  36  37  38  39  40  41  42  43  44  45 0
 3-21G
 ****


