%nproc=1
%NoSave
%Mem=1900MB
#P OB98/GEN NMR

erre ene a

0 1
  C       76.682     181.302    -118.067
  O       76.350     181.601    -116.722
  P       75.237     180.688    -116.006
  C       72.938     181.966    -115.909
  O       73.833     181.139    -116.637
  C       73.591     183.323    -115.626
  O       74.216     183.827    -116.823
  C       72.617     184.411    -115.187
  O       72.237     184.260    -113.828
  C       73.430     185.668    -115.482
  O       74.376     185.909    -114.428
  C       74.167     185.271    -116.776
  N       73.549     185.818    -117.983
  C       74.404     186.462    -118.875
  O       75.612     186.578    -118.681
  N       73.813     186.992    -119.993
  C       72.476     186.994    -120.269
  O       71.995     187.519    -121.267
  C       71.618     186.325    -119.277
  C       72.186     185.780    -118.199
  O       75.246     181.318    -114.536
  O       75.544     179.231    -116.074
  H       75.522     182.253    -114.543
  H       73.860     186.228    -113.661
  H       74.416     187.442    -120.665
  H       70.553     186.317    -119.460
  H       71.566     185.294    -117.453
  H       75.209     185.610    -116.739
  H       72.805     186.563    -115.573
  H       71.724     184.393    -115.823
  H       74.372     183.175    -114.870
  H       72.686     181.476    -114.966
  H       72.023     182.097    -116.495
  P       70.914     185.050    -113.364
  C       71.360     186.975    -111.653
  O       71.384     186.535    -112.993
  O       70.624     184.361    -111.947
  O       69.785     184.956    -114.339
  H       71.428     184.220    -111.423
  H       72.029     187.835    -111.554
  H       71.692     186.189    -110.968
  H       70.342     187.286    -111.389
  H       77.430     181.986    -118.410
  H       75.809     181.393    -118.679
  H       77.058     180.302    -118.128

 3  4  5  6  7  8  9  10  11  12  13  24  28  29  30  31  32 0
 6-311+G(2d,p)
 ****
 33  34 0
 6-311+G(2d,p)
 ****
 1  2  14  15  16  17  18  19  20  21  22  23  25  26  27 0
 3-21G
 ****
 35  36  37  38  39  40  41  42  43  44  45 0
 3-21G
 ****


