%nproc=1
%NoSave
%Mem=1900MB
#P OB98/GEN NMR

erre ene a

0 1
  C     -474.546    -489.663    -345.854
  O     -473.246    -489.226    -345.428
  P     -473.074    -488.906    -343.862
  C     -473.854    -486.437    -343.761
  O     -474.167    -487.786    -343.483
  C     -475.005    -485.489    -343.367
  O     -475.357    -485.690    -341.961
  C     -474.688    -484.004    -343.566
  O     -475.917    -483.357    -343.961
  C     -474.302    -483.566    -342.155
  O     -474.288    -482.165    -341.977
  C     -475.306    -484.367    -341.346
  N     -476.762    -483.012    -336.638
  C     -477.281    -482.732    -337.860
  N     -476.831    -483.128    -339.072
  C     -475.720    -483.900    -338.940
  C     -475.088    -484.254    -337.763
  C     -475.637    -483.780    -336.564
  N     -475.106    -484.026    -335.317
  N     -473.951    -485.029    -338.041
  C     -473.905    -485.056    -339.360
  N     -474.981    -484.464    -339.948
  O     -471.684    -488.141    -343.779
  O     -473.107    -490.129    -343.007
  H     -474.112    -481.951    -341.039
  H     -470.978    -488.737    -343.498
  H     -478.170    -482.117    -337.864
  H     -473.104    -485.508    -339.941
  H     -476.324    -483.933    -341.417
  H     -473.277    -483.919    -341.936
  H     -473.909    -483.810    -344.319
  H     -475.887    -485.762    -343.966
  H     -473.643    -486.311    -344.829
  H     -475.577    -483.625    -334.520
  H     -474.271    -484.569    -335.222
  H     -472.929    -486.165    -343.236
  P     -476.051    -482.837    -345.475
  C     -476.188    -480.343    -344.898
  O     -475.392    -481.369    -345.474
  O     -477.611    -482.478    -345.517
  O     -475.608    -483.788    -346.538
  H     -477.873    -481.922    -344.757
  H     -475.580    -479.419    -344.884
  H     -476.457    -480.589    -343.872
  H     -477.078    -480.170    -345.515
  H     -474.534    -489.843    -346.909
  H     -475.268    -488.906    -345.629
  H     -474.805    -490.566    -345.341

 3  4  5  6  7  8  9  10  11  12  22  25  29  30  31  32 0
 6-311+G(2d,p)
 ****
 33  36  37 0
 6-311+G(2d,p)
 ****
 1  2  13  14  15  16  17  18  19  20  21  23  24  26 0
 3-21G
 ****
 27  28  34  35  38  39  40  41  42  43  44  45  46  47  48 0
 3-21G
 ****


