%nproc=1
%NoSave
%Mem=1900MB
#P OB98/GEN NMR

erre ene a

0 1
  C     -434.741      69.214     295.147
  O     -434.389      70.050     296.233
  H     -434.046      68.369     295.114
  H     -434.672      69.765     294.208
  H     -435.758      68.826     295.281
  P     -435.283      71.366     296.437
  C     -436.924      70.079     297.984
  O     -436.759      70.849     296.802
  C     -437.763      70.841     299.004
  O     -438.996      71.304     298.412
  C     -438.149      70.027     300.233
  O     -437.103      70.012     301.189
  C     -439.376      70.791     300.719
  O     -439.006      71.965     301.476
  C     -440.051      71.183     299.400
  N     -444.700      70.741     297.481
  C     -443.963      71.866     297.776
  N     -444.577      73.054     297.573
  N     -442.738      71.835     298.235
  C     -442.272      70.580     298.410
  C     -442.897      69.383     298.143
  C     -444.242      69.439     297.614
  O     -444.925      68.472     297.272
  N     -442.087      68.323     298.443
  C     -440.987      68.869     298.925
  N     -441.056      70.235     298.943
  O     -435.454      71.940     294.950
  O     -434.714      72.390     297.358
  H     -438.411      71.701     302.197
  H     -435.531      72.912     294.989
  H     -445.634      70.829     297.119
  H     -440.121      68.324     299.275
  H     -440.548      72.163     299.465
  H     -440.000      70.179     301.376
  H     -445.582      73.136     297.556
  H     -438.442      69.012     299.952
  H     -444.046      73.888     297.808
  H     -437.192      71.732     299.302
  H     -435.934      69.873     298.414
  H     -437.402      69.134     297.733
  P     -437.216      68.963     302.397
  C     -435.424      67.444     301.271
  O     -436.739      67.544     301.818
  O     -438.795      68.767     302.580
  O     -436.560      69.393     303.669
  H     -438.989      68.367     303.447
  H     -435.255      66.444     300.929
  H     -434.705      67.690     302.024
  H     -435.327      68.123     300.450

 6  7  8  9  10  11  12  13  14  15  26  29  33  34 0
 6-311+G(2d,p)
 ****
 36  38  39  40  41 0
 6-311+G(2d,p)
 ****
 1  2  3  4  5  16  17  18  19  20  21  22  23  24  25 0
 3-21G
 ****
 27  28  30  31  32  35  37  42  43  44  45  46  47 0
 3-21G
 ****
 48  49 0
 3-21G
 ****


