%nproc=1
%NoSave
%Mem=1900MB
#P OB98/GEN NMR

erre ene a

0 1
  C      599.963     404.164     372.135
  O      598.968     405.040     371.648
  H      599.629     403.754     373.090
  H      600.894     404.712     372.293
  H      600.128     403.341     371.435
  P      599.166     405.597     370.153
  C      598.134     403.497     369.026
  O      599.288     404.311     369.201
  C      598.295     402.612     367.793
  O      598.362     403.422     366.599
  C      599.555     401.755     367.799
  O      599.380     400.564     368.556
  C      599.687     401.445     366.315
  O      598.743     400.421     365.944
  C      599.294     402.784     365.679
  N      601.987     405.233     362.151
  C      600.902     404.387     362.011
  N      600.483     404.151     360.751
  N      600.290     403.819     363.016
  C      600.826     404.136     364.217
  C      601.895     404.962     364.481
  C      602.562     405.594     363.364
  O      603.508     406.368     363.434
  N      602.141     405.052     365.828
  C      601.233     404.262     366.377
  N      600.420     403.678     365.441
  O      600.659     406.181     370.172
  O      598.186     406.632     369.717
  H      598.807     399.722     366.619
  H      600.693     406.977     369.604
  H      602.431     405.636     361.341
  H      601.131     404.084     367.438
  H      598.778     402.655     364.724
  H      600.679     401.078     366.049
  H      600.940     404.518     359.931
  H      600.429     402.325     368.130
  H      599.670     403.559     360.621
  H      597.398     401.982     367.710
  H      597.257     404.140     368.899
  H      597.994     402.878     369.918
  P      600.706     399.793     369.044
  C      601.507     401.756     370.546
  O      601.763     400.946     369.406
  O      601.283     399.175     367.688
  O      600.481     398.755     370.089
  H      601.853     398.406     367.887
  H      602.293     402.473     370.658
  H      601.461     401.139     371.419
  H      600.574     402.265     370.420

 6  7  8  9  10  11  12  13  14  15  26  29  33  34 0
 6-311+G(2d,p)
 ****
 36  38  39  40  41 0
 6-311+G(2d,p)
 ****
 1  2  3  4  5  16  17  18  19  20  21  22  23  24  25 0
 3-21G
 ****
 27  28  30  31  32  35  37  42  43  44  45  46  47 0
 3-21G
 ****
 48  49 0
 3-21G
 ****


