%nproc=1
%NoSave
%Mem=1900MB
#P OB98/GEN NMR

erre ene a

0 1
  C      342.186     384.466      86.542
  O      341.584     385.497      85.753
  P      342.544     386.686      85.254
  C      341.086     388.629      86.148
  O      341.641     387.992      85.008
  C      340.582     390.038      85.810
  O      341.669     390.875      85.316
  C      339.484     390.060      84.742
  O      338.599     391.144      85.045
  C      340.247     390.395      83.476
  O      339.384     390.899      82.458
  C      341.271     391.385      84.028
  N      343.571     394.469      80.672
  C      342.430     394.599      81.383
  N      341.872     393.716      82.240
  C      342.649     392.625      82.363
  C      343.830     392.350      81.698
  C      344.296     393.335      80.811
  N      345.442     393.193      80.066
  N      344.308     391.102      82.053
  C      343.423     390.636      82.912
  N      342.420     391.531      83.155
  O      342.954     386.225      83.776
  O      343.747     386.892      86.112
  H      339.935     391.173      81.697
  H      343.883     385.939      83.763
  H      341.889     395.529      81.238
  H      343.460     389.663      83.379
  H      340.848     392.387      84.172
  H      340.743     389.495      83.089
  H      338.916     389.129      84.652
  H      340.207     390.502      86.730
  H      341.834     388.700      86.942
  H      345.692     393.934      79.428
  H      345.967     392.333      80.125
  H      340.281     388.005      86.550
  P      337.153     390.751      85.617
  C      336.155     390.602      83.229
  O      336.096     391.206      84.505
  O      336.925     391.793      86.811
  O      337.046     389.334      86.080
  H      336.308     391.422      87.468
  H      335.136     390.415      82.880
  H      336.703     389.656      83.244
  H      336.645     391.290      82.531
  H      341.445     383.741      86.807
  H      342.601     384.893      87.431
  H      342.962     383.992      85.978

 3  4  5  6  7  8  9  10  11  12  22  25  29  30  31  32 0
 6-311+G(2d,p)
 ****
 33  36  37 0
 6-311+G(2d,p)
 ****
 1  2  13  14  15  16  17  18  19  20  21  23  24  26 0
 3-21G
 ****
 27  28  34  35  38  39  40  41  42  43  44  45  46  47  48 0
 3-21G
 ****


