%nproc=1
%NoSave
%Mem=1900MB
#P OB98/GEN NMR

erre ene a

0 1
  C     -388.849    -190.494    -155.232
  O     -389.375    -190.273    -156.526
  H     -389.352    -191.359    -154.792
  H     -389.035    -189.620    -154.603
  H     -387.775    -190.696    -155.283
  P     -388.609    -189.195    -157.432
  C     -387.272    -191.038    -158.732
  O     -387.234    -189.874    -157.920
  C     -386.467    -190.813    -160.011
  O     -386.181    -192.066    -160.664
  C     -387.200    -190.011    -161.073
  O     -387.301    -188.642    -160.750
  C     -386.319    -190.286    -162.288
  O     -385.197    -189.397    -162.338
  C     -385.855    -191.743    -162.034
  N     -386.452    -192.668    -162.979
  C     -385.542    -193.375    -163.781
  O     -384.332    -193.207    -163.636
  N     -386.035    -194.225    -164.736
  C     -387.315    -194.336    -164.905
  N     -387.737    -195.168    -165.893
  C     -388.305    -193.604    -164.087
  C     -387.810    -192.794    -163.151
  O     -388.123    -188.118    -156.351
  O     -389.422    -188.621    -158.542
  H     -385.565    -188.493    -162.434
  H     -387.680    -188.513    -155.580
  H     -389.365    -193.743    -164.255
  H     -388.462    -192.220    -162.504
  H     -384.762    -191.815    -162.124
  H     -386.870    -190.154    -163.223
  H     -388.187    -190.451    -161.264
  H     -385.516    -190.337    -159.735
  H     -387.024    -195.607    -166.465
  H     -388.307    -191.306    -158.976
  H     -388.703    -195.272    -166.165
  H     -386.845    -191.864    -158.152
  P     -388.238    -187.655    -161.596
  C     -390.309    -188.971    -160.800
  O     -389.589    -188.466    -161.922
  O     -387.600    -187.028    -162.786
  O     -388.743    -186.604    -160.494
  H     -389.234    -186.995    -159.753
  H     -391.182    -189.488    -161.140
  H     -390.599    -188.158    -160.167
  H     -389.686    -189.646    -160.251

 6  7  8  9  10  11  12  13  14  15  16  26  30  31  32  33  35 0
 6-311+G(2d,p)
 ****
 37  38 0
 6-311+G(2d,p)
 ****
 1  2  3  4  5  17  18  19  20  21  22  23  24  25 0
 3-21G
 ****
 27  28  29  34  36  39  40  41  42  43  44  45  46 0
 3-21G
 ****


