%nproc=1
%NoSave
%Mem=1900MB
#P OB98/GEN NMR

erre ene a

0 1
  C      657.611     -56.785    -595.893
  O      658.100     -56.874    -597.212
  H      657.619     -55.737    -595.583
  H      658.252     -57.355    -595.215
  H      656.586     -57.162    -595.837
  P      658.031     -58.305    -597.933
  C      656.326     -57.184    -599.542
  O      656.660     -58.331    -598.771
  C      654.816     -56.951    -599.518
  O      654.151     -58.118    -600.072
  C      654.254     -56.708    -598.117
  O      653.223     -55.716    -598.202
  C      653.634     -58.043    -597.741
  O      652.592     -57.915    -596.773
  C      653.180     -58.570    -599.112
  N      653.052     -60.023    -599.108
  C      651.755     -60.539    -599.052
  O      650.787     -59.780    -599.000
  N      651.585     -61.901    -598.997
  C      652.623     -62.678    -598.914
  N      652.388     -64.015    -598.832
  C      654.009     -62.172    -598.904
  C      654.151     -60.850    -599.008
  O      657.737     -59.315    -596.727
  O      659.242     -58.687    -598.714
  H      651.979     -57.210    -597.076
  H      658.143     -60.188    -596.890
  H      654.840     -62.853    -598.809
  H      655.130     -60.382    -598.998
  H      652.209     -58.131    -599.387
  H      654.404     -58.697    -597.321
  H      655.011     -56.387    -597.398
  H      654.586     -56.109    -600.185
  H      651.424     -64.322    -598.831
  H      656.646     -57.346    -600.575
  H      653.120     -64.703    -598.722
  H      656.858     -56.314    -599.142
  P      653.571     -54.269    -597.608
  C      653.362     -53.243    -599.988
  O      654.141     -53.359    -598.804
  O      654.855     -54.540    -596.695
  O      652.456     -53.658    -596.828
  H      654.615     -54.474    -595.753
  H      653.868     -52.610    -600.687
  H      652.409     -52.819    -599.748
  H      653.223     -54.212    -600.420

 6  7  8  9  10  11  12  13  14  15  16  26  30  31  32  33  35 0
 6-311+G(2d,p)
 ****
 37  38 0
 6-311+G(2d,p)
 ****
 1  2  3  4  5  17  18  19  20  21  22  23  24  25 0
 3-21G
 ****
 27  28  29  34  36  39  40  41  42  43  44  45  46 0
 3-21G
 ****


