%nproc=1
%NoSave
%Mem=1900MB
#P OB98/GEN NMR

erre ene a

0 1
  C      153.801     216.020     176.341
  O      153.593     215.349     177.567
  H      154.848     215.937     176.038
  H      153.176     215.556     175.572
  H      153.524     217.075     176.435
  P      154.450     215.857     178.824
  C      152.763     217.795     179.228
  O      154.106     217.419     178.962
  C      152.744     219.175     179.875
  O      151.407     219.725     179.837
  C      153.148     219.171     181.345
  O      154.555     219.167     181.523
  C      152.538     220.481     181.811
  O      153.354     221.581     181.372
  C      151.196     220.481     181.061
  N      147.625     221.258     184.645
  C      148.521     222.089     184.070
  N      149.423     221.809     183.106
  C      149.337     220.523     182.733
  C      148.471     219.560     183.225
  C      147.582     219.970     184.234
  N      146.690     219.118     184.846
  N      148.696     218.344     182.609
  C      149.667     218.578     181.750
  N      150.110     219.871     181.812
  O      155.955     215.868     178.279
  O      154.289     215.073     180.083
  H      153.234     222.301     182.020
  H      156.585     215.945     179.021
  H      148.513     223.112     184.432
  H      150.090     217.845     181.075
  H      150.870     221.488     180.778
  H      152.462     220.549     182.899
  H      152.677     218.344     181.889
  H      153.393     219.839     179.291
  H      152.315     217.063     179.909
  H      146.203     219.467     185.657
  H      146.752     218.130     184.653
  H      152.197     217.810     178.292
  P      155.113     218.920     183.009
  C      154.382     216.432     182.849
  O      154.319     217.648     183.585
  O      154.493     220.143     183.832
  O      156.600     218.861     183.113
  H      155.092     220.417     184.551
  H      153.809     215.681     183.352
  H      155.401     216.113     182.774
  H      153.983     216.588     181.868

 6  7  8  9  10  11  12  13  14  15  25  28  32  33  34  35 0
 6-311+G(2d,p)
 ****
 36  39  40 0
 6-311+G(2d,p)
 ****
 1  2  3  4  5  16  17  18  19  20  21  22  23  24 0
 3-21G
 ****
 26  27  29  30  31  37  38  41  42  43  44  45  46  47 0
 3-21G
 ****
 48 0
 3-21G
 ****


