%nproc=1
%NoSave
%Mem=1900MB
#P OB98/GEN NMR

erre ene a

0 1
  C     -153.241     427.871     255.985
  O     -154.073     426.732     255.745
  P     -153.426     425.264     255.858
  C     -152.250     425.366     253.564
  O     -152.092     425.220     254.974
  C     -150.887     425.253     252.845
  O     -150.427     423.864     252.829
  C     -150.961     425.722     251.390
  O     -149.708     426.323     250.994
  C     -151.106     424.426     250.622
  O     -150.717     424.572     249.248
  C     -150.210     423.502     251.453
  N     -148.384     418.722     251.783
  C     -147.855     419.917     252.134
  N     -148.413     421.142     252.049
  C     -149.648     421.058     251.524
  C     -150.320     419.915     251.114
  C     -149.628     418.700     251.257
  N     -150.160     417.494     250.857
  N     -151.574     420.239     250.637
  C     -151.638     421.535     250.695
  N     -150.511     422.097     251.251
  O     -154.361     424.126     255.639
  O     -152.845     425.247     257.354
  H     -151.346     425.206     248.839
  H     -153.036     424.373     257.763
  H     -146.854     419.871     252.556
  H     -152.466     422.152     250.336
  H     -149.150     423.654     251.232
  H     -152.164     424.102     250.645
  H     -151.774     426.432     251.172
  H     -150.146     425.825     253.409
  H     -152.710     426.327     253.343
  H     -149.552     416.687     250.890
  H     -151.032     417.480     250.349
  H     -152.947     424.610     253.208
  P     -149.771     427.900     250.673
  C     -151.064     427.773     248.399
  O     -151.069     428.127     249.769
  O     -148.490     428.442     250.120
  O     -150.154     428.521     252.101
  H     -150.927     428.093     252.523
  H     -152.087     427.878     248.013
  H     -150.748     426.736     248.276
  H     -150.395     428.434     247.851
  H     -153.818     428.765     255.871
  H     -152.433     427.877     255.284
  H     -152.850     427.824     256.980

 3  4  5  6  7  8  9  10  11  12  22  25  29  30  31  32 0
 6-311+G(2d,p)
 ****
 33  36  37 0
 6-311+G(2d,p)
 ****
 1  2  13  14  15  16  17  18  19  20  21  23  24  26 0
 3-21G
 ****
 27  28  34  35  38  39  40  41  42  43  44  45  46  47  48 0
 3-21G
 ****


