%nproc=1
%NoSave
%Mem=1900MB
#P OB98/GEN NMR

erre ene a

0 1
  C      426.911    -129.791     -36.240
  O      427.824    -130.772     -36.752
  P      428.642    -131.789     -35.819
  C      428.815    -133.497     -37.758
  O      429.510    -132.749     -36.768
  C      429.789    -134.102     -38.775
  O      430.350    -133.059     -39.610
  C      431.010    -134.787     -38.174
  O      430.690    -136.038     -37.589
  C      431.928    -134.881     -39.394
  O      431.626    -136.031     -40.190
  C      431.575    -133.593     -40.167
  N      432.639    -132.606     -40.142
  C      433.921    -133.055     -40.464
  O      434.128    -134.252     -40.671
  N      434.944    -132.138     -40.529
  C      434.724    -130.904     -40.192
  N      435.769    -130.037     -40.293
  C      433.416    -130.416     -39.713
  C      432.429    -131.311     -39.716
  O      427.789    -132.528     -34.838
  O      429.737    -130.889     -35.071
  H      429.982    -131.313     -34.223
  H      431.473    -136.773     -39.565
  H      433.284    -129.390     -39.410
  H      431.426    -131.031     -39.395
  H      431.336    -133.839     -41.207
  H      432.984    -134.951     -39.106
  H      431.463    -134.130     -37.423
  H      429.231    -134.801     -39.412
  H      436.647    -130.398     -40.633
  H      428.129    -132.821     -38.283
  H      435.698    -129.051     -40.079
  H      428.223    -134.281     -37.266
  P      430.351    -136.043     -36.019
  C      429.270    -138.367     -35.594
  O      430.432    -137.558     -35.509
  O      428.784    -135.702     -35.972
  O      431.145    -135.064     -35.214
  H      428.602    -135.113     -35.216
  H      429.581    -139.412     -35.682
  H      428.657    -138.101     -36.455
  H      428.686    -138.249     -34.677
  H      426.491    -129.236     -37.053
  H      427.433    -129.125     -35.585
  H      426.128    -130.280     -35.700

 3  4  5  6  7  8  9  10  11  12  13  24  27  28  29  30  32 0
 6-311+G(2d,p)
 ****
 34  35 0
 6-311+G(2d,p)
 ****
 1  2  14  15  16  17  18  19  20  21  22  23  25  26 0
 3-21G
 ****
 31  33  36  37  38  39  40  41  42  43  44  45  46 0
 3-21G
 ****


