%nproc=1
%NoSave
%Mem=1900MB
#P OB98/GEN NMR

erre ene a

0 1
  C      -13.411    -119.428     103.897
  O      -12.775    -119.120     105.120
  H      -12.730    -119.189     103.077
  H      -14.319    -118.827     103.783
  H      -13.661    -120.492     103.844
  P      -13.487    -119.547     106.490
  C      -15.456    -118.664     107.909
  O      -14.589    -118.428     106.808
  C      -15.877    -117.340     108.560
  O      -14.726    -116.784     109.267
  C      -16.357    -116.267     107.562
  O      -17.318    -115.453     108.250
  C      -15.064    -115.507     107.317
  O      -15.269    -114.293     106.640
  C      -14.532    -115.446     108.755
  N      -13.138    -115.040     108.893
  C      -12.879    -113.700     109.167
  O      -13.745    -112.834     109.307
  N      -11.556    -113.360     109.278
  C      -10.495    -114.210     109.160
  O       -9.332    -113.855     109.300
  C      -10.832    -115.610     108.862
  C      -12.117    -115.959     108.750
  O      -12.571    -119.873     107.622
  O      -14.379    -120.813     106.073
  H      -13.932    -121.635     106.353
  H      -15.869    -113.728     107.173
  H      -11.350    -112.394     109.480
  H      -10.012    -116.310     108.751
  H      -12.396    -116.987     108.540
  H      -15.161    -114.781     109.357
  H      -14.399    -116.096     106.680
  H      -16.812    -116.689     106.662
  H      -16.643    -117.548     109.316
  H      -14.922    -119.283     108.638
  H      -16.340    -119.208     107.559
  P      -18.904    -115.684     108.148
  C      -20.797    -115.174     106.455
  O      -19.421    -115.016     106.782
  O      -19.660    -115.237     109.360
  O      -19.089    -117.257     107.902
  H      -19.961    -117.539     108.235
  H      -21.002    -114.683     105.527
  H      -21.399    -114.742     107.227
  H      -21.025    -116.216     106.365

 6  7  8  9  10  11  12  13  14  15  16  27  31  32  33  34  35 0
 6-311+G(2d,p)
 ****
 36  37 0
 6-311+G(2d,p)
 ****
 1  2  3  4  5  17  18  19  20  21  22  23  24  25 0
 3-21G
 ****
 26  28  29  30  38  39  40  41  42  43  44  45 0
 3-21G
 ****


