%nproc=1
%NoSave
%Mem=1900MB
#P OB98/GEN NMR

erre ene a

0 1
  C      340.548      87.808    -485.003
  O      341.981      87.794    -484.998
  P      342.706      88.148    -483.603
  C      343.245      90.488    -484.585
  O      343.722      89.369    -483.848
  C      344.261      91.644    -484.588
  O      344.956      91.724    -483.316
  C      345.319      91.527    -485.693
  O      345.638      92.853    -486.112
  C      346.510      90.939    -484.949
  O      347.723      91.188    -485.651
  C      346.373      91.655    -483.580
  N      347.101      90.976    -482.519
  C      348.467      91.244    -482.403
  O      349.036      91.973    -483.235
  N      349.186      90.661    -481.384
  C      348.594      89.832    -480.576
  N      349.345      89.286    -479.594
  C      347.160      89.476    -480.696
  C      346.489      90.079    -481.657
  O      343.670      86.891    -483.354
  O      341.746      88.333    -482.467
  H      347.923      92.151    -485.600
  H      343.549      86.549    -482.452
  H      346.709      88.761    -480.008
  H      345.436      89.877    -481.826
  H      346.757      92.683    -483.650
  H      346.395      89.853    -484.827
  H      344.990      90.927    -486.540
  H      343.699      92.571    -484.718
  H      350.324      89.552    -479.536
  H      342.306      90.832    -484.147
  H      348.994      88.624    -478.913
  H      343.013      90.168    -485.602
  P      344.796      93.489    -487.309
  C      346.696      94.384    -488.801
  O      345.687      94.716    -487.845
  O      343.650      94.295    -486.499
  O      344.208      92.581    -488.339
  H      343.008      94.669    -487.129
  H      347.142      95.312    -489.167
  H      346.255      93.847    -489.642
  H      347.481      93.784    -488.322
  H      340.192      87.558    -485.981
  H      340.200      88.784    -484.735
  H      340.182      87.092    -484.297

 3  4  5  6  7  8  9  10  11  12  13  21  23  27  28  29  30  32 0
 6-311+G(2d,p)
 ****
 34  35 0
 6-311+G(2d,p)
 ****
 1  2  14  15  16  17  18  19  20  22  24  25  26 0
 3-21G
 ****
 31  33  36  37  38  39  40  41  42  43  44  45  46 0
 3-21G
 ****


