%nproc=1
%NoSave
%Mem=1900MB
#P OB98/GEN NMR

erre ene a

0 1
  C     -484.100    -647.103    -404.983
  O     -482.710    -647.259    -405.172
  H     -484.606    -647.348    -405.917
  H     -484.331    -646.070    -404.726
  H     -484.462    -647.773    -404.202
  P     -481.731    -646.954    -403.936
  C     -480.582    -649.244    -404.315
  O     -481.287    -648.405    -403.414
  C     -481.041    -650.686    -404.170
  O     -482.470    -650.808    -404.356
  C     -480.447    -651.663    -405.181
  O     -479.081    -651.978    -404.941
  C     -481.363    -652.851    -404.976
  O     -481.009    -653.529    -403.757
  C     -482.738    -652.150    -404.847
  N     -483.454    -652.094    -406.125
  C     -484.458    -653.051    -406.316
  O     -484.689    -653.899    -405.458
  N     -485.153    -653.053    -407.507
  C     -484.846    -652.188    -408.441
  N     -485.563    -652.231    -409.591
  C     -483.788    -651.168    -408.272
  C     -483.145    -651.181    -407.111
  O     -482.264    -646.030    -402.887
  O     -480.380    -646.424    -404.619
  H     -480.139    -653.941    -403.899
  H     -479.737    -646.210    -403.893
  H     -483.561    -650.489    -409.083
  H     -482.349    -650.462    -406.920
  H     -483.367    -652.650    -404.106
  H     -481.307    -653.586    -405.779
  H     -480.583    -651.287    -406.208
  H     -480.821    -650.996    -403.138
  H     -486.282    -652.952    -409.671
  H     -479.509    -649.151    -404.105
  H     -485.348    -651.656    -410.396
  H     -480.762    -648.920    -405.348
  P     -478.074    -651.874    -406.192
  C     -475.941    -650.685    -405.283
  O     -477.186    -650.563    -405.943
  O     -479.029    -651.466    -407.404
  O     -477.276    -653.110    -406.467
  H     -479.268    -652.269    -407.931
  H     -475.485    -649.721    -405.201
  H     -475.302    -651.335    -405.843
  H     -476.094    -651.091    -404.305

 6  7  8  9  10  11  12  13  14  15  16  26  30  31  32  33  35 0
 6-311+G(2d,p)
 ****
 37  38 0
 6-311+G(2d,p)
 ****
 1  2  3  4  5  17  18  19  20  21  22  23  24  25 0
 3-21G
 ****
 27  28  29  34  36  39  40  41  42  43  44  45  46 0
 3-21G
 ****


