%nproc=1
%NoSave
%Mem=1900MB
#P OB98/GEN NMR

erre ene a

0 1
  C     1232.849     189.857     323.676
  O     1232.094     190.247     324.804
  H     1233.865     190.250     323.785
  H     1232.403     190.271     322.772
  H     1232.900     188.767     323.600
  P     1230.634     189.596     324.951
  C     1229.696     191.828     325.899
  O     1229.872     190.429     326.098
  C     1228.927     192.436     327.077
  O     1227.569     191.927     327.100
  C     1229.521     192.118     328.448
  O     1230.587     193.004     328.769
  C     1228.318     192.372     329.330
  O     1228.124     193.777     329.509
  C     1227.167     191.771     328.499
  N     1223.656     188.423     329.939
  C     1223.574     189.797     329.790
  N     1222.369     190.363     330.081
  N     1224.561     190.564     329.425
  C     1225.694     189.859     329.163
  C     1225.902     188.503     329.271
  C     1224.804     187.671     329.694
  O     1224.802     186.458     329.815
  N     1227.193     188.160     328.924
  C     1227.768     189.313     328.640
  N     1226.896     190.369     328.766
  O     1230.921     188.181     325.651
  O     1229.882     189.425     323.669
  H     1227.280     193.891     329.989
  H     1230.289     187.519     325.297
  H     1222.856     187.889     330.260
  H     1228.791     189.434     328.321
  H     1226.227     192.313     328.620
  H     1228.429     191.933     330.333
  H     1221.588     189.841     330.426
  H     1229.830     191.069     328.525
  H     1222.273     191.368     329.948
  H     1228.870     193.519     326.913
  H     1229.135     191.995     324.975
  H     1230.687     192.301     325.819
  P     1232.029     192.353     329.071
  C     1233.078     194.169     330.619
  O     1233.018     193.586     329.313
  O     1232.465     191.783     327.636
  O     1232.029     191.286     330.122
  H     1233.130     191.076     327.744
  H     1233.780     194.976     330.617
  H     1233.388     193.428     331.326
  H     1232.111     194.538     330.890

 6  7  8  9  10  11  12  13  14  15  26  29  33  34 0
 6-311+G(2d,p)
 ****
 36  38  39  40  41 0
 6-311+G(2d,p)
 ****
 1  2  3  4  5  16  17  18  19  20  21  22  23  24  25 0
 3-21G
 ****
 27  28  30  31  32  35  37  42  43  44  45  46  47 0
 3-21G
 ****
 48  49 0
 3-21G
 ****


