%nproc=1
%NoSave
%Mem=1900MB
#P OB98/GEN NMR

erre ene a

0 1
  C     -149.682     -14.425    -100.052
  O     -148.293     -14.707    -100.098
  P     -147.622     -14.973    -101.528
  C     -147.062     -12.470    -101.932
  O     -147.748     -13.626    -102.392
  C     -147.141     -11.343    -102.962
  O     -146.665     -10.106    -102.369
  C     -146.300     -11.599    -104.217
  O     -146.958     -11.023    -105.356
  C     -145.041     -10.795    -103.968
  O     -144.380     -10.466    -105.189
  C     -145.612      -9.596    -103.212
  N     -141.655      -6.459    -103.383
  C     -142.603      -6.726    -104.350
  N     -142.418      -6.142    -105.552
  N     -143.643      -7.493    -104.152
  C     -143.695      -8.015    -102.902
  C     -142.823      -7.811    -101.855
  C     -141.671      -6.969    -102.092
  O     -140.781      -6.715    -101.288
  N     -143.226      -8.481    -100.730
  C     -144.314      -9.126    -101.102
  N     -144.617      -8.904    -102.420
  O     -148.662     -15.967    -102.230
  O     -146.260     -15.576    -101.475
  H     -145.032     -10.001    -105.748
  H     -148.301     -16.873    -102.240
  H     -140.865      -5.868    -103.587
  H     -144.900      -9.781    -100.471
  H     -146.063      -8.867    -103.896
  H     -144.346     -11.369    -103.347
  H     -141.604      -5.595    -105.788
  H     -146.091     -12.655    -104.415
  H     -143.075      -6.358    -106.291
  H     -148.193     -11.185    -103.228
  H     -146.015     -12.722    -101.760
  H     -147.495     -12.142    -100.981
  P     -146.652     -11.718    -106.771
  C     -149.048     -12.732    -106.737
  O     -147.660     -12.956    -106.876
  O     -145.225     -12.406    -106.542
  O     -146.652     -10.776    -107.928
  H     -144.759     -12.506    -107.392
  H     -149.545     -12.997    -107.674
  H     -149.278     -11.691    -106.495
  H     -149.433     -13.371    -105.938
  H     -149.981     -14.272     -99.036
  H     -150.227     -15.249    -100.464
  H     -149.886     -13.542    -100.621

 3  4  5  6  7  8  9  10  11  12  23  26  30  31 0
 6-311+G(2d,p)
 ****
 33  35  36  37  38 0
 6-311+G(2d,p)
 ****
 1  2  13  14  15  16  17  18  19  20  21  22  24  25 0
 3-21G
 ****
 27  28  29  32  34  39  40  41  42  43  44  45  46  47  48  49 0
 3-21G
 ****


