%nproc=1
%NoSave
%Mem=1900MB
#P OB98/GEN NMR

erre ene a

0 1
  C       37.894     117.685      34.571
  O       37.150     116.663      35.204
  H       38.290     118.357      35.336
  H       37.250     118.258      33.897
  H       38.728     117.254      34.012
  P       36.432     115.604      34.235
  C       37.250     113.457      33.036
  O       37.604     114.715      33.591
  C       38.277     113.026      31.992
  O       38.113     113.781      30.772
  C       39.728     113.204      32.427
  O       40.162     112.103      33.208
  C       40.432     113.285      31.080
  O       40.626     111.968      30.519
  C       39.430     114.090      30.242
  N       40.969     118.035      27.492
  C       40.957     116.688      27.190
  N       41.455     116.333      25.984
  N       40.510     115.766      27.999
  C       40.096     116.257      29.191
  C       40.060     117.567      29.611
  C       40.509     118.582      28.683
  O       40.467     119.796      28.860
  N       39.555     117.666      30.883
  C       39.320     116.418      31.241
  N       39.638     115.526      30.249
  O       35.933     116.502      33.005
  O       35.301     114.845      34.841
  H       41.010     112.055      29.629
  H       35.065     116.170      32.707
  H       41.297     118.703      26.818
  H       38.914     116.112      32.195
  H       39.436     113.781      29.191
  H       41.424     113.728      31.171
  H       42.065     116.941      25.458
  H       39.865     114.150      32.965
  H       41.513     115.340      25.796
  H       38.076     111.975      31.747
  H       36.267     113.542      32.564
  H       37.201     112.711      33.835
  P       41.498     112.271      34.075
  C       42.101     113.546      36.256
  O       41.269     113.480      35.106
  O       42.538     112.871      33.017
  O       42.015     111.007      34.675
  H       43.171     112.181      32.747
  H       41.831     114.399      36.843
  H       43.123     113.631      35.952
  H       41.975     112.658      36.839

 6  7  8  9  10  11  12  13  14  15  26  29  33  34 0
 6-311+G(2d,p)
 ****
 36  38  39  40  41 0
 6-311+G(2d,p)
 ****
 1  2  3  4  5  16  17  18  19  20  21  22  23  24  25 0
 3-21G
 ****
 27  28  30  31  32  35  37  42  43  44  45  46  47 0
 3-21G
 ****
 48  49 0
 3-21G
 ****


