%nproc=1
%NoSave
%Mem=1900MB
#P OB98/GEN NMR

erre ene a

0 1
  C     -183.263     397.953     258.729
  O     -181.872     398.145     258.876
  P     -180.860     397.981     257.643
  C     -180.889     400.556     257.599
  O     -180.942     399.367     256.823
  C     -179.625     401.363     257.292
  O     -179.463     401.491     255.852
  C     -179.612     402.779     257.889
  O     -178.250     403.063     258.222
  C     -180.061     403.632     256.718
  O     -179.719     405.007     256.871
  C     -179.375     402.907     255.556
  N     -179.982     403.232     254.268
  C     -179.368     404.240     253.516
  O     -178.402     404.854     253.984
  N     -179.882     404.565     252.287
  C     -180.983     404.002     251.888
  N     -181.447     404.356     250.661
  C     -181.737     403.027     252.708
  C     -181.176     402.685     253.859
  O     -181.064     396.755     256.817
  O     -179.414     398.068     258.324
  H     -179.820     405.447     255.998
  H     -179.196     397.206     258.772
  H     -182.677     402.633     252.355
  H     -181.658     401.975     254.526
  H     -178.308     403.167     255.508
  H     -181.152     403.570     256.613
  H     -180.256     402.892     258.765
  H     -178.763     400.798     257.663
  H     -180.887     405.017     250.128
  H     -180.876     400.273     258.656
  H     -182.242     403.923     250.221
  H     -181.785     401.156     257.423
  P     -177.869     404.140     259.349
  C     -176.982     402.339     260.938
  O     -177.923     403.383     260.757
  O     -178.651     405.416     259.293
  O     -176.301     404.404     259.142
  H     -176.047     405.221     259.609
  H     -176.920     402.093     262.006
  H     -175.995     402.642     260.585
  H     -177.313     401.448     260.387
  H     -183.746     398.111     259.670
  H     -183.452     396.954     258.395
  H     -183.645     398.648     258.011

 3  4  5  6  7  8  9  10  11  12  13  23  27  28  29  30  32 0
 6-311+G(2d,p)
 ****
 34  35 0
 6-311+G(2d,p)
 ****
 1  2  14  15  16  17  18  19  20  21  22  24  25  26 0
 3-21G
 ****
 31  33  36  37  38  39  40  41  42  43  44  45  46 0
 3-21G
 ****


