%nproc=1
%NoSave
%Mem=1900MB
#P OB98/GEN NMR

erre ene a

0 1
  C     -108.658    -866.442     -31.998
  O     -108.011    -866.702     -33.225
  H     -107.910    -866.094     -31.275
  H     -109.122    -867.352     -31.605
  H     -109.414    -865.664     -32.117
  P     -108.901    -867.240     -34.450
  C     -108.555    -865.022     -35.749
  O     -109.494    -865.921     -35.161
  C     -108.805    -864.895     -37.242
  O     -110.106    -864.327     -37.482
  C     -107.794    -863.999     -37.959
  O     -106.605    -864.728     -38.240
  C     -108.587    -863.658     -39.221
  O     -108.574    -864.776     -40.125
  C     -109.998    -863.447     -38.647
  N     -112.095    -859.032     -40.003
  C     -111.944    -860.198     -40.731
  N     -112.358    -860.169     -42.008
  N     -111.397    -861.285     -40.247
  C     -110.954    -861.148     -38.977
  C     -111.052    -860.046     -38.158
  C     -111.698    -858.862     -38.687
  O     -111.880    -857.804     -38.065
  N     -110.434    -860.254     -36.941
  C     -110.013    -861.493     -37.014
  N     -110.299    -862.087     -38.229
  O     -109.940    -868.267     -34.121
  O     -107.828    -867.779     -35.505
  H     -109.208    -864.559     -40.837
  H     -107.661    -868.732     -35.384
  H     -112.509    -858.230     -40.437
  H     -109.507    -862.032     -36.217
  H     -110.777    -863.746     -39.349
  H     -108.180    -862.800     -39.756
  H     -112.511    -859.303     -42.508
  H     -107.607    -863.079     -37.413
  H     -112.199    -861.004     -42.581
  H     -108.818    -865.907     -37.672
  H     -107.556    -865.420     -35.555
  H     -108.638    -864.038     -35.267
  P     -105.503    -864.146     -39.261
  C     -104.420    -862.948     -37.237
  O     -104.949    -862.820     -38.564
  O     -106.004    -863.953     -40.663
  O     -104.266    -865.158     -39.142
  H     -104.328    -865.925     -39.760
  H     -104.086    -861.992     -36.892
  H     -103.596    -863.631     -37.246
  H     -105.182    -863.317     -36.583

 6  7  8  9  10  11  12  13  14  15  26  29  33  34 0
 6-311+G(2d,p)
 ****
 36  38  39  40  41 0
 6-311+G(2d,p)
 ****
 1  2  3  4  5  16  17  18  19  20  21  22  23  24  25 0
 3-21G
 ****
 27  28  30  31  32  35  37  42  43  44  45  46  47 0
 3-21G
 ****
 48  49 0
 3-21G
 ****


