%nproc=1
%NoSave
%Mem=1900MB
#P OB98/GEN NMR

erre ene a

0 1
  C     -447.777    -401.261    -565.828
  O     -448.853    -402.133    -566.125
  P     -448.526    -403.461    -566.975
  C     -450.960    -404.205    -566.295
  O     -449.943    -404.143    -567.287
  C     -452.341    -404.150    -566.951
  O     -452.441    -405.163    -567.969
  C     -453.502    -404.406    -565.999
  O     -453.792    -403.272    -565.194
  C     -454.599    -404.783    -566.978
  O     -455.187    -403.604    -567.564
  C     -453.828    -405.582    -568.044
  N     -453.949    -407.032    -567.896
  C     -455.028    -407.617    -568.544
  O     -455.851    -406.983    -569.206
  N     -455.155    -408.976    -568.382
  C     -454.362    -409.766    -567.599
  O     -454.539    -410.971    -567.457
  C     -453.262    -409.080    -566.917
  C     -453.108    -407.766    -567.086
  O     -447.874    -404.381    -565.839
  O     -447.652    -403.204    -568.153
  H     -448.204    -404.149    -564.951
  H     -454.441    -403.034    -567.836
  H     -455.924    -409.427    -568.858
  H     -452.609    -409.677    -566.281
  H     -452.300    -407.238    -566.586
  H     -454.165    -405.301    -569.048
  H     -455.423    -405.348    -566.499
  H     -453.274    -405.261    -565.350
  H     -452.452    -403.167    -567.438
  H     -450.850    -403.353    -565.608
  H     -450.836    -405.131    -565.723
  P     -454.656    -403.540    -563.864
  C     -454.239    -401.055    -563.137
  O     -455.168    -402.103    -563.364
  O     -453.513    -403.940    -562.819
  O     -455.727    -404.574    -564.038
  H     -452.717    -403.380    -562.897
  H     -454.774    -400.110    -563.163
  H     -453.460    -401.041    -563.902
  H     -453.778    -401.185    -562.151
  H     -448.139    -400.428    -565.263
  H     -447.340    -400.911    -566.740
  H     -447.040    -401.786    -565.257

 3  4  5  6  7  8  9  10  11  12  13  24  28  29  30  31  32 0
 6-311+G(2d,p)
 ****
 33  34 0
 6-311+G(2d,p)
 ****
 1  2  14  15  16  17  18  19  20  21  22  23  25  26  27 0
 3-21G
 ****
 35  36  37  38  39  40  41  42  43  44  45 0
 3-21G
 ****


