%nproc=1
%NoSave
%Mem=1900MB
#P OB98/GEN NMR

erre ene a

0 1
  C       67.389    -172.271    -633.625
  O       66.474    -171.674    -632.724
  P       66.766    -170.160    -632.275
  C       66.499    -170.290    -629.689
  O       65.903    -169.933    -630.937
  C       66.039    -169.332    -628.589
  O       66.260    -167.981    -629.019
  C       64.568    -169.427    -628.235
  O       64.325    -170.555    -627.415
  C       64.331    -168.094    -627.541
  O       64.649    -168.181    -626.141
  C       65.321    -167.155    -628.285
  N       64.642    -166.206    -629.158
  C       64.186    -165.026    -628.535
  O       64.347    -164.863    -627.322
  N       63.533    -164.093    -629.313
  C       63.343    -164.320    -630.569
  N       62.689    -163.360    -631.287
  C       63.785    -165.554    -631.266
  C       64.423    -166.442    -630.491
  O       65.974    -169.296    -633.373
  O       68.211    -169.798    -632.202
  H       63.988    -168.811    -625.760
  H       66.368    -168.412    -633.484
  H       63.608    -165.680    -632.308
  H       64.783    -167.375    -630.918
  H       65.913    -166.577    -627.549
  H       63.286    -167.778    -627.617
  H       63.962    -169.485    -629.158
  H       66.675    -169.504    -627.697
  H       62.381    -162.526    -630.787
  H       67.590    -170.256    -629.767
  H       62.505    -163.442    -632.276
  H       66.202    -171.325    -629.441
  P       63.795    -171.907    -628.133
  C       61.861    -171.713    -626.468
  O       62.817    -172.568    -627.060
  O       65.082    -172.855    -628.061
  O       63.288    -171.763    -629.527
  H       64.918    -173.678    -628.560
  H       61.160    -172.313    -625.887
  H       61.307    -171.157    -627.229
  H       62.370    -171.008    -625.791
  H       67.077    -173.272    -633.839
  H       68.364    -172.287    -633.185
  H       67.417    -171.705    -634.532

 3  4  5  6  7  8  9  10  11  12  13  21  23  27  28  29  30  32 0
 6-311+G(2d,p)
 ****
 34  35 0
 6-311+G(2d,p)
 ****
 1  2  14  15  16  17  18  19  20  22  24  25  26 0
 3-21G
 ****
 31  33  36  37  38  39  40  41  42  43  44  45  46 0
 3-21G
 ****


