%nproc=1
%NoSave
%Mem=1900MB
#P OB98/GEN NMR

erre ene a

0 1
  C     -159.156    -825.067      24.192
  O     -160.279    -825.406      23.403
  H     -158.774    -824.089      23.892
  H     -159.457    -825.022      25.240
  H     -158.363    -825.818      24.090
  P     -160.010    -825.827      21.882
  C     -160.411    -823.369      21.136
  O     -159.533    -824.489      21.126
  C     -159.620    -822.068      20.932
  O     -158.943    -822.139      19.643
  C     -160.490    -820.797      20.925
  O     -159.774    -819.758      21.592
  C     -160.595    -820.455      19.448
  O     -160.839    -819.071      19.216
  C     -159.232    -820.934      18.935
  N     -160.336    -818.721      14.483
  C     -160.116    -818.219      15.713
  N     -159.774    -818.877      16.839
  C     -159.593    -820.187      16.594
  C     -159.784    -820.854      15.389
  C     -160.183    -820.061      14.294
  N     -160.478    -820.581      13.055
  N     -159.555    -822.209      15.548
  C     -159.274    -822.360      16.833
  N     -159.284    -821.166      17.499
  O     -161.496    -826.066      21.321
  O     -159.145    -827.020      21.685
  H     -160.978    -818.926      18.259
  H     -161.765    -826.987      21.494
  H     -160.242    -817.132      15.809
  H     -159.082    -823.302      17.318
  H     -158.441    -820.208      19.120
  H     -161.414    -821.032      18.995
  H     -161.474    -820.932      21.390
  H     -158.848    -822.007      21.699
  H     -160.915    -823.323      22.110
  H     -160.865    -819.954      12.362
  H     -160.474    -821.582      12.929
  H     -161.158    -823.484      20.350
  P     -160.132    -819.485      23.129
  C     -161.455    -817.257      22.810
  O     -161.494    -818.633      23.205
  O     -159.010    -818.429      23.596
  O     -160.115    -820.712      23.990
  H     -158.782    -818.563      24.542
  H     -162.430    -816.828      22.915
  H     -161.143    -817.188      21.789
  H     -160.763    -816.727      23.431

 6  7  8  9  10  11  12  13  14  15  25  28  32  33  34  35 0
 6-311+G(2d,p)
 ****
 36  39  40 0
 6-311+G(2d,p)
 ****
 1  2  3  4  5  16  17  18  19  20  21  22  23  24 0
 3-21G
 ****
 26  27  29  30  31  37  38  41  42  43  44  45  46  47 0
 3-21G
 ****
 48 0
 3-21G
 ****


