%nproc=1
%NoSave
%Mem=1900MB
#P OB98/GEN NMR

erre ene a

0 1
  C     1025.400    -656.859     297.484
  O     1025.804    -655.543     297.046
  P     1027.387    -655.268     296.906
  C     1027.381    -655.856     294.360
  O     1027.874    -656.149     295.665
  C     1028.303    -654.848     293.656
  O     1029.642    -655.324     293.707
  C     1027.966    -654.628     292.208
  O     1026.838    -653.762     292.064
  C     1029.271    -654.024     291.698
  O     1029.287    -652.599     291.868
  C     1030.347    -654.717     292.572
  N     1031.110    -655.693     291.842
  C     1032.097    -655.167     290.975
  O     1032.228    -653.955     290.890
  N     1032.859    -656.048     290.257
  C     1032.653    -657.330     290.333
  N     1033.453    -658.138     289.586
  C     1031.624    -657.909     291.206
  C     1030.891    -657.053     291.927
  O     1027.989    -656.009     298.167
  O     1027.748    -653.812     296.858
  H     1028.797    -652.229     291.106
  H     1028.839    -655.586     298.461
  H     1031.500    -658.987     291.257
  H     1030.104    -657.391     292.601
  H     1031.028    -653.987     292.983
  H     1029.406    -654.210     290.620
  H     1027.778    -655.587     291.708
  H     1028.262    -653.896     294.224
  H     1034.117    -657.710     288.997
  H     1026.371    -655.418     294.468
  H     1033.369    -659.152     289.611
  H     1027.297    -656.771     293.787
  P     1025.533    -654.360     291.393
  C     1024.181    -653.841     293.527
  O     1024.610    -654.844     292.636
  O     1026.035    -655.754     290.807
  O     1024.837    -653.504     290.373
  H     1025.329    -656.154     290.265
  H     1023.471    -654.283     294.237
  H     1023.725    -653.015     293.011
  H     1025.048    -653.471     294.134
  H     1024.332    -656.906     297.534
  H     1025.811    -657.054     298.452
  H     1025.757    -657.591     296.790

 3  4  5  6  7  8  9  10  11  12  13  21  23  27  28  29  30  32 0
 6-311+G(2d,p)
 ****
 34  35 0
 6-311+G(2d,p)
 ****
 1  2  14  15  16  17  18  19  20  22  24  25  26 0
 3-21G
 ****
 31  33  36  37  38  39  40  41  42  43  44  45  46 0
 3-21G
 ****


