%nproc=1
%NoSave
%Mem=1900MB
#P OB98/GEN NMR

erre ene a

0 1
  C     -101.698     -31.717     201.093
  O     -102.501     -32.279     202.112
  H     -102.120     -30.750     200.810
  H     -101.690     -32.365     200.214
  H     -100.677     -31.561     201.452
  P     -102.095     -33.713     202.706
  C     -103.994     -34.649     201.210
  O     -103.415     -34.609     202.507
  C     -105.217     -35.562     201.207
  O     -104.907     -36.855     201.772
  C     -106.397     -35.060     202.030
  O     -107.094     -33.979     201.430
  C     -107.234     -36.324     202.088
  O     -107.890     -36.528     200.827
  C     -106.139     -37.390     202.334
  N     -105.964     -37.702     203.753
  C     -106.889     -38.591     204.315
  O     -107.797     -39.068     203.639
  N     -106.778     -38.899     205.651
  C     -105.848     -38.348     206.366
  N     -105.792     -38.682     207.684
  C     -104.868     -37.390     205.819
  C     -104.979     -37.117     204.522
  O     -101.521     -33.710     204.086
  O     -101.113     -34.338     201.606
  H     -107.197     -36.534     200.142
  H     -100.823     -35.225     201.931
  H     -104.130     -36.938     206.463
  H     -104.300     -36.420     204.044
  H     -106.369     -38.316     201.791
  H     -108.009     -36.292     202.857
  H     -106.081     -34.801     203.051
  H     -105.498     -35.728     200.158
  H     -106.477     -39.341     208.034
  H     -103.234     -35.006     200.507
  H     -105.148     -38.245     208.332
  H     -104.311     -33.646     200.911
  P     -106.854     -32.518     202.059
  C     -109.347     -31.740     202.096
  O     -108.054     -31.598     201.530
  O     -105.573     -31.990     201.263
  O     -106.662     -32.489     203.543
  H     -104.761     -32.114     201.793
  H     -110.019     -31.052     201.627
  H     -109.302     -31.535     203.145
  H     -109.696     -32.740     201.943

 6  7  8  9  10  11  12  13  14  15  16  26  30  31  32  33  35 0
 6-311+G(2d,p)
 ****
 37  38 0
 6-311+G(2d,p)
 ****
 1  2  3  4  5  17  18  19  20  21  22  23  24  25 0
 3-21G
 ****
 27  28  29  34  36  39  40  41  42  43  44  45  46 0
 3-21G
 ****


