%nproc=1
%NoSave
%Mem=1900MB
#P OB98/GEN NMR

erre ene a

0 1
  C       -2.258      30.238      18.685
  O       -1.825      30.272      17.344
  H       -3.129      29.582      18.754
  H       -2.549      31.243      19.002
  H       -1.478      29.856      19.348
  P       -0.337      30.767      17.028
  C        1.335      30.644      15.066
  O        0.059      30.254      15.558
  C        1.924      29.591      14.127
  O        2.120      28.355      14.846
  C        1.001      29.274      12.947
  O        1.162      30.129      11.829
  C        1.406      27.843      12.606
  O        2.501      27.818      11.675
  C        1.838      27.264      13.958
  N        0.651      22.579      15.623
  C        1.770      22.993      14.924
  N        2.657      22.027      14.604
  N        1.977      24.233      14.568
  C        0.956      25.065      14.872
  C       -0.209      24.766      15.542
  C       -0.397      23.406      15.999
  O       -1.361      22.993      16.634
  N       -1.034      25.861      15.633
  C       -0.406      26.792      14.944
  N        0.840      26.381      14.532
  O        0.572      29.841      17.972
  O       -0.069      32.216      17.296
  H        2.255      28.367      10.905
  H        1.368      30.333      18.242
  H        0.561      21.617      15.895
  H       -0.783      27.790      14.753
  H        2.763      26.681      13.865
  H        0.580      27.306      12.133
  H        2.507      21.047      14.778
  H       -0.045      29.265      13.266
  H        3.393      22.254      13.932
  H        2.912      29.924      13.785
  H        1.979      30.770      15.937
  H        1.269      31.612      14.562
  P       -0.021      30.334      10.775
  C       -0.904      32.382       9.391
  O       -0.196      31.897      10.510
  O       -1.326      29.954      11.619
  O        0.089      29.530       9.522
  H       -1.605      29.039      11.428
  H       -0.901      33.452       9.404
  H       -1.913      32.027       9.426
  H       -0.435      32.035       8.494

 6  7  8  9  10  11  12  13  14  15  26  29  33  34 0
 6-311+G(2d,p)
 ****
 36  38  39  40  41 0
 6-311+G(2d,p)
 ****
 1  2  3  4  5  16  17  18  19  20  21  22  23  24  25 0
 3-21G
 ****
 27  28  30  31  32  35  37  42  43  44  45  46  47 0
 3-21G
 ****
 48  49 0
 3-21G
 ****


