%nproc=1
%NoSave
%Mem=1900MB
#P OB98/GEN NMR

erre ene a

0 1
  C       81.912     -62.172     187.374
  O       83.284     -62.533     187.220
  P       84.112     -62.964     188.524
  C       83.976     -65.537     188.364
  O       83.537     -64.369     189.050
  C       84.285     -66.667     189.363
  O       83.045     -67.099     189.985
  C       84.900     -67.928     188.745
  O       86.320     -68.003     188.630
  C       84.491     -68.991     189.760
  O       85.420     -68.998     190.860
  C       83.124     -68.516     190.250
  N       80.848     -73.051     189.564
  C       81.936     -72.683     190.276
  N       82.475     -71.454     190.407
  C       81.770     -70.547     189.715
  C       80.639     -70.773     188.945
  C       80.175     -72.096     188.877
  N       79.076     -72.472     188.143
  N       80.193     -69.597     188.375
  C       81.054     -68.682     188.783
  N       82.016     -69.201     189.603
  O       84.287     -61.910     189.568
  O       85.532     -63.391     187.908
  H       85.643     -68.065     191.042
  H       86.239     -63.112     188.519
  H       82.442     -73.482     190.814
  H       81.018     -67.635     188.503
  H       82.997     -68.654     191.328
  H       84.499     -69.999     189.338
  H       84.441     -68.147     187.773
  H       84.944     -66.278     190.152
  H       84.871     -65.305     187.783
  H       78.834     -73.452     188.112
  H       78.593     -71.786     187.579
  H       83.195     -65.813     187.653
  P       87.022     -68.647     187.341
  C       88.159     -66.450     186.491
  O       87.183     -67.447     186.290
  O       86.347     -69.860     186.796
  O       88.519     -68.889     187.844
  H       89.027     -68.073     188.000
  H       88.255     -65.859     185.575
  H       89.131     -66.895     186.725
  H       87.852     -65.787     187.305
  H       81.502     -61.912     186.420
  H       81.836     -61.334     188.036
  H       81.369     -62.999     187.782

 3  4  5  6  7  8  9  10  11  12  22  25  29  30  31  32 0
 6-311+G(2d,p)
 ****
 33  36  37 0
 6-311+G(2d,p)
 ****
 1  2  13  14  15  16  17  18  19  20  21  23  24  26 0
 3-21G
 ****
 27  28  34  35  38  39  40  41  42  43  44  45  46  47  48 0
 3-21G
 ****


