%nproc=1
%NoSave
%Mem=1900MB
#P OB98/GEN NMR

erre ene a

0 1
  C     -505.224     514.451     580.604
  O     -504.066     514.812     581.336
  H     -505.663     513.566     581.063
  H     -504.947     514.208     579.578
  H     -505.956     515.261     580.618
  P     -503.340     516.184     580.937
  C     -503.375     517.064     583.381
  O     -502.582     516.707     582.260
  C     -502.671     516.660     584.674
  O     -502.887     515.242     584.906
  C     -501.164     516.911     584.668
  O     -500.751     517.360     585.964
  C     -500.569     515.529     584.403
  O     -499.233     515.400     584.888
  C     -501.602     514.618     585.081
  N     -501.575     513.267     584.524
  C     -500.458     512.479     584.858
  O     -499.565     512.929     585.587
  N     -500.360     511.214     584.322
  C     -501.239     510.815     583.460
  N     -501.065     509.562     582.943
  C     -502.383     511.640     583.026
  C     -502.493     512.845     583.607
  O     -504.552     517.215     580.777
  O     -502.476     516.118     579.718
  H     -498.974     514.450     584.812
  H     -504.351     517.895     580.103
  H     -503.079     511.268     582.288
  H     -503.294     513.516     583.337
  H     -501.400     514.556     586.166
  H     -500.553     515.334     583.327
  H     -500.849     517.638     583.906
  H     -503.142     517.195     585.520
  H     -500.260     509.036     583.251
  H     -504.329     516.545     583.322
  H     -501.652     509.164     582.232
  H     -503.551     518.146     583.366
  P     -499.290     518.004     586.074
  C     -500.110     520.373     586.780
  O     -499.358     519.212     587.132
  O     -499.104     518.740     584.664
  O     -498.211     517.000     586.325
  H     -498.450     518.257     584.126
  H     -500.062     521.084     587.578
  H     -501.130     520.099     586.607
  H     -499.702     520.806     585.891

 6  7  8  9  10  11  12  13  14  15  16  26  30  31  32  33  35 0
 6-311+G(2d,p)
 ****
 37  38 0
 6-311+G(2d,p)
 ****
 1  2  3  4  5  17  18  19  20  21  22  23  24  25 0
 3-21G
 ****
 27  28  29  34  36  39  40  41  42  43  44  45  46 0
 3-21G
 ****


