%nproc=1
%NoSave
%Mem=1900MB
#P OB98/GEN NMR

erre ene a

0 1
  C      110.064       3.596    -188.085
  O      110.711       4.852    -187.854
  P      111.796       4.917    -186.675
  C      110.260       6.360    -185.144
  O      111.029       5.171    -185.292
  C      109.799       6.511    -183.693
  O      110.919       6.674    -182.805
  C      108.931       7.739    -183.468
  O      107.612       7.506    -183.922
  C      109.038       7.930    -181.960
  O      108.013       7.209    -181.257
  C      110.435       7.356    -181.633
  N      111.373       8.374    -181.189
  C      111.550       8.481    -179.807
  O      110.915       7.751    -179.042
  N      112.422       9.425    -179.328
  C      113.039      10.210    -180.156
  N      113.886      11.130    -179.623
  C      112.859      10.149    -181.620
  C      112.016       9.217    -182.065
  O      112.545       6.306    -186.941
  O      112.751       3.769    -186.667
  H      108.094       6.280    -181.556
  H      113.480       6.242    -186.675
  H      113.389      10.829    -182.269
  H      111.822       9.099    -183.127
  H      110.362       6.599    -180.842
  H      108.928       8.983    -181.682
  H      109.365       8.604    -183.982
  H      109.248       5.606    -183.407
  H      113.984      11.147    -178.615
  H      109.396       6.333    -185.810
  H      114.412      11.795    -180.173
  H      110.870       7.215    -185.456
  P      107.162       8.201    -185.292
  C      106.360      10.271    -184.002
  O      107.229       9.777    -185.004
  O      105.579       7.934    -185.299
  O      107.812       7.726    -186.546
  H      105.195       8.231    -186.142
  H      106.649      11.296    -183.762
  H      106.432       9.663    -183.095
  H      105.331      10.273    -184.370
  H      109.370       3.696    -188.894
  H      109.541       3.296    -187.201
  H      110.797       2.857    -188.333

 3  4  5  6  7  8  9  10  11  12  13  21  23  27  28  29  30  32 0
 6-311+G(2d,p)
 ****
 34  35 0
 6-311+G(2d,p)
 ****
 1  2  14  15  16  17  18  19  20  22  24  25  26 0
 3-21G
 ****
 31  33  36  37  38  39  40  41  42  43  44  45  46 0
 3-21G
 ****


