%nproc=1
%NoSave
%Mem=1900MB
#P OB98/GEN NMR

erre ene a

0 1
  C       18.007     134.144    -210.925
  O       17.210     135.259    -210.492
  P       17.311     135.745    -208.963
  C       15.289     134.298    -208.152
  O       15.869     135.587    -208.279
  C       14.238     134.301    -207.034
  O       14.850     134.608    -205.763
  C       13.140     135.341    -207.207
  O       12.183     134.949    -208.177
  C       12.574     135.419    -205.796
  O       11.629     134.359    -205.562
  C       13.839     135.219    -204.935
  N       14.317     136.467    -204.344
  C       13.541     136.999    -203.318
  O       12.477     136.508    -202.951
  N       14.020     138.153    -202.748
  C       15.132     138.841    -203.142
  O       15.494     139.879    -202.602
  C       15.863     138.271    -204.283
  C       15.425     137.134    -204.820
  O       17.425     137.338    -209.128
  O       18.467     135.209    -208.187
  H       12.126     133.521    -205.644
  H       17.916     137.708    -208.370
  H       13.486     138.539    -201.985
  H       16.736     138.799    -204.636
  H       15.956     136.697    -205.665
  H       13.635     134.507    -204.127
  H       12.050     136.363    -205.604
  H       13.582     136.310    -207.470
  H       13.806     133.291    -206.970
  H       16.067     133.573    -207.903
  H       14.835     134.014    -209.106
  P       12.428     135.460    -209.681
  C       10.206     136.838    -209.615
  O       10.976     135.832    -210.241
  O       12.819     134.089    -210.409
  O       13.465     136.529    -209.773
  H       12.347     133.323    -210.030
  H       10.839     137.630    -209.208
  H        9.615     136.391    -208.811
  H        9.527     137.273    -210.353
  H       17.821     133.954    -211.961
  H       17.750     133.278    -210.352
  H       19.043     134.370    -210.784

 3  4  5  6  7  8  9  10  11  12  13  23  28  29  30  31  32 0
 6-311+G(2d,p)
 ****
 33  34 0
 6-311+G(2d,p)
 ****
 1  2  14  15  16  17  18  19  20  21  22  24  25  26 0
 3-21G
 ****
 27  35  36  37  38  39  40  41  42  43  44  45 0
 3-21G
 ****


