%nproc=1
%NoSave
%Mem=1900MB
#P OB98/GEN NMR

erre ene a

0 1
  C     -145.475    -206.385    -133.743
  O     -145.338    -205.240    -134.563
  P     -146.455    -204.893    -135.670
  C     -144.978    -204.336    -137.715
  O     -145.790    -203.813    -136.657
  C     -144.394    -203.190    -138.535
  O     -145.435    -202.430    -139.189
  C     -143.630    -202.160    -137.712
  O     -142.443    -202.578    -137.080
  C     -143.519    -201.011    -138.692
  O     -142.449    -201.223    -139.618
  C     -144.878    -201.102    -139.435
  N     -145.809    -200.053    -139.008
  C     -145.905    -198.950    -139.842
  O     -145.270    -198.828    -140.896
  N     -146.756    -197.954    -139.427
  C     -147.454    -197.931    -138.258
  O     -148.162    -196.973    -137.928
  C     -147.298    -199.121    -137.405
  C     -146.504    -200.111    -137.811
  O     -147.796    -204.505    -135.122
  O     -146.499    -206.208    -136.583
  H     -142.275    -200.364    -140.060
  H     -145.644    -206.441    -137.015
  H     -146.823    -197.138    -140.024
  H     -147.864    -199.142    -136.468
  H     -146.370    -201.012    -137.192
  H     -144.747    -201.019    -140.521
  H     -143.339    -200.056    -138.205
  H     -144.289    -201.825    -136.897
  H     -143.768    -203.619    -139.317
  H     -145.601    -204.955    -138.352
  H     -144.194    -204.978    -137.299
  P     -142.293    -202.671    -135.473
  C     -139.789    -202.047    -135.773
  O     -140.745    -202.882    -135.138
  O     -143.281    -203.538    -134.748
  O     -142.511    -201.144    -135.042
  H     -142.928    -201.129    -134.160
  H     -138.789    -202.351    -135.461
  H     -139.931    -201.005    -135.468
  H     -139.847    -202.146    -136.853
  H     -144.641    -206.447    -133.075
  H     -145.507    -207.261    -134.356
  H     -146.380    -206.312    -133.177

 3  4  5  6  7  8  9  10  11  12  13  23  28  29  30  31  32 0
 6-311+G(2d,p)
 ****
 33  34 0
 6-311+G(2d,p)
 ****
 1  2  14  15  16  17  18  19  20  21  22  24  25  26  27 0
 3-21G
 ****
 35  36  37  38  39  40  41  42  43  44  45 0
 3-21G
 ****


