%nproc=1
%NoSave
%Mem=1900MB
#P OB98/GEN NMR

erre ene a

0 1
  C      -46.867     -95.741       9.477
  O      -47.129     -94.921       8.361
  H      -47.790     -96.263       9.746
  H      -46.549     -95.141      10.332
  H      -46.103     -96.484       9.235
  P      -45.996     -93.893       7.868
  C      -46.337     -94.676       5.449
  O      -45.406     -94.546       6.517
  C      -45.685     -95.289       4.209
  O      -44.669     -94.389       3.697
  C      -45.014     -96.643       4.467
  O      -45.388     -97.563       3.439
  C      -43.528     -96.332       4.383
  O      -42.754     -97.480       4.051
  C      -43.524     -95.194       3.356
  N      -42.292     -94.415       3.373
  C      -41.702     -94.154       2.132
  O      -42.203     -94.605       1.100
  N      -40.542     -93.425       2.090
  C      -39.986     -93.035       3.194
  N      -38.832     -92.325       3.085
  C      -40.548     -93.327       4.528
  C      -41.694     -94.009       4.543
  O      -44.973     -93.550       8.897
  O      -46.811     -92.627       7.328
  H      -43.087     -97.843       3.200
  H      -46.214     -91.838       7.303
  H      -40.042     -92.989       5.420
  H      -42.183     -94.261       5.477
  H      -43.672     -95.585       2.341
  H      -43.178     -95.957       5.353
  H      -45.276     -97.077       5.429
  H      -46.446     -95.367       3.424
  H      -38.481     -92.143       2.152
  H      -46.743     -93.687       5.216
  H      -38.310     -91.975       3.875
  H      -47.151     -95.329       5.783
  P      -45.811     -99.034       3.926
  C      -48.260     -98.695       3.155
  O      -47.388     -99.019       4.227
  O      -45.144     -99.141       5.376
  O      -45.345    -100.123       3.018
  H      -44.318     -99.658       5.329
  H      -49.273     -98.724       3.498
  H      -48.131     -99.404       2.364
  H      -48.033     -97.713       2.795

 6  7  8  9  10  11  12  13  14  15  16  26  30  31  32  33  35 0
 6-311+G(2d,p)
 ****
 37  38 0
 6-311+G(2d,p)
 ****
 1  2  3  4  5  17  18  19  20  21  22  23  24  25 0
 3-21G
 ****
 27  28  29  34  36  39  40  41  42  43  44  45  46 0
 3-21G
 ****


