%nproc=1
%NoSave
%Mem=1900MB
#P OB98/GEN NMR

erre ene a

0 1
  C     1044.043     -65.782    -301.981
  O     1044.919     -66.895    -302.031
  P     1045.041     -67.865    -300.760
  C     1046.632     -69.397    -302.077
  O     1046.438     -68.653    -300.883
  C     1048.117     -69.715    -302.261
  O     1048.838     -68.525    -302.648
  C     1048.807     -70.224    -301.003
  O     1048.480     -71.576    -300.761
  C     1050.272     -69.966    -301.352
  O     1050.779     -71.033    -302.174
  C     1050.194     -68.671    -302.148
  N     1054.046     -66.171    -299.926
  C     1053.986     -67.386    -300.506
  N     1052.908     -68.005    -301.046
  C     1051.810     -67.225    -300.914
  C     1051.726     -65.988    -300.325
  C     1052.911     -65.429    -299.820
  N     1053.009     -64.161    -299.287
  N     1050.417     -65.524    -300.368
  C     1049.736     -66.477    -300.962
  N     1050.544     -67.498    -301.366
  O     1043.849     -68.721    -300.491
  O     1045.297     -66.860    -299.536
  H     1050.865     -71.827    -301.600
  H     1044.589     -66.961    -298.887
  H     1054.917     -67.940    -300.548
  H     1048.664     -66.471    -301.144
  H     1050.852     -68.691    -303.029
  H     1050.913     -69.893    -300.457
  H     1048.537     -69.596    -300.150
  H     1048.212     -70.449    -303.067
  H     1046.281     -68.788    -302.914
  H     1053.933     -63.811    -299.104
  H     1052.267     -63.497    -299.487
  H     1046.047     -70.325    -302.030
  P     1049.038     -72.297    -299.455
  C     1048.318     -74.426    -300.708
  O     1049.261     -73.836    -299.830
  O     1048.256     -72.066    -298.195
  O     1050.543     -71.755    -299.313
  H     1050.787     -71.695    -298.372
  H     1047.409     -74.662    -300.156
  H     1048.750     -75.329    -301.125
  H     1048.089     -73.726    -301.530
  H     1044.089     -65.250    -302.908
  H     1044.336     -65.133    -301.183
  H     1043.043     -66.123    -301.814

 3  4  5  6  7  8  9  10  11  12  22  25  29  30  31  32 0
 6-311+G(2d,p)
 ****
 33  36  37 0
 6-311+G(2d,p)
 ****
 1  2  13  14  15  16  17  18  19  20  21  23  24  26 0
 3-21G
 ****
 27  28  34  35  38  39  40  41  42  43  44  45  46  47  48 0
 3-21G
 ****


