%nproc=1
%NoSave
%Mem=1900MB
#P OB98/GEN NMR

erre ene a

0 1
  C      -56.327      10.790    -338.670
  O      -56.287      12.082    -338.097
  H      -57.318      10.361    -338.497
  H      -55.579      10.140    -338.208
  H      -56.156      10.847    -339.749
  P      -54.910      12.896    -338.147
  C      -54.352      11.805    -335.868
  O      -53.894      12.125    -337.176
  C      -53.373      12.319    -334.814
  O      -53.841      11.987    -333.492
  C      -51.974      11.723    -334.922
  O      -51.269      12.299    -336.002
  C      -51.429      12.043    -333.540
  O      -51.021      13.417    -333.452
  C      -52.675      11.786    -332.657
  N      -52.695      10.459    -332.049
  C      -52.920      10.419    -330.667
  O      -53.070      11.462    -330.033
  N      -52.947       9.194    -330.046
  C      -52.809       8.109    -330.740
  N      -52.850       6.931    -330.064
  C      -52.607       8.107    -332.202
  C      -52.549       9.304    -332.783
  O      -55.004      14.370    -337.897
  O      -54.328      12.581    -339.604
  H      -50.692      13.545    -332.540
  H      -54.590      13.277    -340.235
  H      -52.507       7.177    -332.743
  H      -52.401       9.391    -333.856
  H      -52.733      12.529    -331.850
  H      -50.560      11.433    -333.286
  H      -52.032      10.634    -335.026
  H      -53.339      13.414    -334.889
  H      -53.013       6.980    -329.064
  H      -54.429      10.714    -335.810
  H      -52.919       6.030    -330.516
  H      -55.349      12.228    -335.693
  P      -50.127      11.491    -336.785
  C      -48.309      12.056    -335.056
  O      -49.075      11.026    -335.664
  O      -49.529      12.204    -337.950
  O      -50.841      10.115    -337.178
  H      -51.441      10.246    -337.953
  H      -47.648      11.628    -334.331
  H      -48.965      12.751    -334.575
  H      -47.737      12.564    -335.804

 6  7  8  9  10  11  12  13  14  15  16  26  30  31  32  33  35 0
 6-311+G(2d,p)
 ****
 37  38 0
 6-311+G(2d,p)
 ****
 1  2  3  4  5  17  18  19  20  21  22  23  24  25 0
 3-21G
 ****
 27  28  29  34  36  39  40  41  42  43  44  45  46 0
 3-21G
 ****


