%nproc=1
%NoSave
%Mem=1900MB
#P OB98/GEN NMR

erre ene a

0 1
  C       87.118     -50.379     -16.242
  O       87.063     -49.012     -15.817
  P       86.364     -47.876     -16.709
  C       88.433     -46.784     -17.766
  O       87.257     -47.549     -18.006
  C       89.351     -46.688     -18.992
  O       88.674     -46.037     -20.101
  C       90.658     -45.917     -18.763
  O       91.627     -46.517     -19.625
  C       90.297     -44.525     -19.254
  O       91.427     -43.718     -19.552
  C       89.437     -44.872     -20.464
  N       89.157     -40.359     -22.866
  C       90.135     -41.287     -22.813
  N       90.122     -42.478     -22.184
  C       88.935     -42.699     -21.598
  C       87.841     -41.849     -21.575
  C       87.987     -40.619     -22.238
  N       87.011     -39.648     -22.257
  N       86.806     -42.402     -20.845
  C       87.276     -43.560     -20.427
  N       88.556     -43.788     -20.858
  O       85.947     -46.664     -15.940
  O       85.074     -48.599     -17.325
  H       91.110     -42.844     -19.841
  H       84.302     -48.008     -17.234
  H       91.052     -41.036     -23.339
  H       86.744     -44.260     -19.796
  H       90.055     -45.135     -21.331
  H       89.717     -44.010     -18.479
  H       90.996     -45.929     -17.725
  H       89.569     -47.712     -19.320
  H       88.983     -47.242     -16.937
  H       87.243     -38.763     -22.678
  H       86.185     -39.771     -21.690
  H       88.137     -45.776     -17.451
  P       92.965     -47.184     -19.053
  C       94.320     -45.213     -19.958
  O       94.009     -45.994     -18.819
  O       93.490     -48.328     -19.857
  O       92.585     -47.639     -17.565
  H       93.222     -48.310     -17.256
  H       95.007     -45.765     -20.605
  H       94.801     -44.287     -19.634
  H       93.414     -44.963     -20.519
  H       87.625     -50.962     -15.502
  H       87.646     -50.443     -17.170
  H       86.124     -50.753     -16.371

 3  4  5  6  7  8  9  10  11  12  22  25  29  30  31  32 0
 6-311+G(2d,p)
 ****
 33  36  37 0
 6-311+G(2d,p)
 ****
 1  2  13  14  15  16  17  18  19  20  21  23  24  26 0
 3-21G
 ****
 27  28  34  35  38  39  40  41  42  43  44  45  46  47  48 0
 3-21G
 ****


