%nproc=1
%NoSave
%Mem=1900MB
#P OB98/GEN NMR

erre ene a

0 1
  C     -144.597     110.069      27.774
  O     -143.697     109.462      28.685
  P     -142.326     108.881      28.077
  C     -141.712     106.823      26.592
  O     -142.712     107.534      27.303
  C     -142.135     105.360      26.432
  O     -142.012     104.661      27.687
  C     -143.579     105.173      25.982
  O     -143.685     105.332      24.579
  C     -143.866     103.757      26.465
  O     -143.340     102.782      25.544
  C     -143.110     103.715      27.801
  N     -143.744     102.918      32.754
  C     -142.905     102.288      31.851
  N     -142.086     101.336      32.355
  N     -142.871     102.566      30.574
  C     -143.753     103.526      30.212
  C     -144.644     104.211      31.007
  C     -144.634     103.931      32.424
  O     -145.286     104.528      33.278
  N     -145.393     105.095      30.276
  C     -144.934     104.967      29.048
  N     -143.924     104.043      28.958
  O     -141.540     108.378      29.374
  O     -141.530     109.853      27.263
  H     -143.749     102.914      24.670
  H     -140.881     109.040      29.658
  H     -143.713     102.674      33.728
  H     -145.281     105.533      28.196
  H     -142.666     102.730      27.993
  H     -144.939     103.559      26.550
  H     -142.076     101.054      33.323
  H     -144.235     105.881      26.501
  H     -141.469     100.864      31.708
  H     -141.446     104.888      25.719
  H     -140.773     106.866      27.150
  H     -141.564     107.292      25.612
  P     -145.003     106.046      24.010
  C     -147.543     105.526      24.185
  O     -146.219     105.023      24.210
  O     -144.766     106.055      22.427
  O     -145.236     107.425      24.534
  H     -145.135     106.875      22.045
  H     -148.205     104.743      23.811
  H     -147.630     106.405      23.541
  H     -147.844     105.793      25.201
  H     -145.463     110.411      28.302
  H     -144.890     109.355      27.033
  H     -144.118     110.899      27.299

 3  4  5  6  7  8  9  10  11  12  23  26  30  31 0
 6-311+G(2d,p)
 ****
 33  35  36  37  38 0
 6-311+G(2d,p)
 ****
 1  2  13  14  15  16  17  18  19  20  21  22  24  25 0
 3-21G
 ****
 27  28  29  32  34  39  40  41  42  43  44  45  46  47  48  49 0
 3-21G
 ****


