%nproc=1
%NoSave
%Mem=1900MB
#P OB98/GEN NMR

erre ene a

0 1
  C     1304.238     430.649    1212.645
  O     1303.820     431.033    1213.943
  H     1303.551     429.899    1212.246
  H     1304.222     431.533    1211.991
  H     1305.253     430.251    1212.663
  P     1304.053     429.987    1215.134
  C     1301.594     429.137    1215.139
  O     1302.627     429.800    1215.864
  C     1300.221     429.640    1215.588
  O     1300.073     429.346    1217.019
  C     1299.995     431.159    1215.400
  O     1298.639     431.355    1214.983
  C     1300.177     431.714    1216.789
  O     1299.481     432.939    1216.998
  C     1299.647     430.575    1217.652
  N     1299.196     433.139    1222.030
  C     1298.396     433.069    1220.940
  N     1298.564     432.307    1219.835
  C     1299.659     431.536    1219.946
  C     1300.552     431.486    1220.991
  C     1300.310     432.358    1222.070
  N     1301.158     432.486    1223.150
  N     1301.590     430.586    1220.725
  C     1301.311     430.121    1219.511
  N     1300.158     430.665    1219.005
  O     1304.901     430.845    1216.185
  O     1304.748     428.723    1214.750
  H     1299.849     433.612    1216.391
  H     1305.841     430.771    1215.979
  H     1297.515     433.695    1220.957
  H     1301.933     429.428    1218.957
  H     1298.551     430.560    1217.716
  H     1301.244     431.882    1216.984
  H     1300.673     431.607    1214.655
  H     1299.455     429.069    1215.069
  H     1301.673     428.064    1215.320
  H     1300.936     433.214    1223.818
  H     1302.037     431.993    1223.138
  H     1301.734     429.329    1214.058
  P     1298.253     430.959    1213.478
  C     1298.081     433.438    1212.661
  O     1297.430     432.169    1212.819
  O     1297.137     429.819    1213.661
  O     1299.427     430.465    1212.660
  H     1297.198     429.175    1212.946
  H     1297.403     434.133    1212.210
  H     1298.941     433.322    1212.035
  H     1298.384     433.805    1213.619

 6  7  8  9  10  11  12  13  14  15  25  28  32  33  34  35 0
 6-311+G(2d,p)
 ****
 36  39  40 0
 6-311+G(2d,p)
 ****
 1  2  3  4  5  16  17  18  19  20  21  22  23  24 0
 3-21G
 ****
 26  27  29  30  31  37  38  41  42  43  44  45  46  47 0
 3-21G
 ****
 48 0
 3-21G
 ****


