%nproc=1
%NoSave
%Mem=1900MB
#P OB98/GEN NMR

erre ene a

0 1
  C        2.855      58.826     413.842
  O        3.116      58.423     412.510
  H        2.401      57.987     414.379
  H        2.158      59.669     413.850
  H        3.787      59.107     414.338
  P        3.729      59.540     411.536
  C        6.115      58.614     411.152
  O        5.307      59.569     411.819
  C        7.450      59.235     410.743
  O        7.242      60.300     409.788
  C        8.248      59.831     411.894
  O        9.000      58.830     412.559
  C        9.125      60.834     411.159
  O       10.254      60.183     410.543
  C        8.166      61.379     410.091
  N        8.487      66.350     410.943
  C        9.470      65.435     410.619
  N       10.733      65.904     410.545
  N        9.244      64.159     410.413
  C        7.942      63.821     410.580
  C        6.876      64.634     410.891
  C        7.139      66.046     411.066
  O        6.297      66.922     411.270
  N        5.704      63.919     410.956
  C        6.068      62.673     410.712
  N        7.418      62.565     410.481
  O        3.211      60.917     412.177
  O        3.327      59.432     410.103
  H       10.690      60.803     409.939
  H        2.994      61.536     411.455
  H        8.717      67.321     411.056
  H        5.399      61.823     410.683
  H        8.687      61.631     409.162
  H        9.537      61.582     411.840
  H       11.010      66.775     410.973
  H        7.593      60.365     412.592
  H       11.464      65.217     410.386
  H        8.033      58.456     410.235
  H        5.590      58.263     410.258
  H        6.298      57.763     411.820
  P        9.730      59.220     413.933
  C        7.681      59.053     415.518
  O        8.645      59.899     414.899
  O       10.667      60.444     413.500
  O       10.533      58.118     414.541
  H       11.595      60.150     413.454
  H        7.029      59.642     416.128
  H        8.181      58.328     416.126
  H        7.109      58.553     414.764

 6  7  8  9  10  11  12  13  14  15  26  29  33  34 0
 6-311+G(2d,p)
 ****
 36  38  39  40  41 0
 6-311+G(2d,p)
 ****
 1  2  3  4  5  16  17  18  19  20  21  22  23  24  25 0
 3-21G
 ****
 27  28  30  31  32  35  37  42  43  44  45  46  47 0
 3-21G
 ****
 48  49 0
 3-21G
 ****


