%nproc=1
%NoSave
%Mem=1900MB
#P OB98/GEN NMR

erre ene a

0 1
  C      179.872     155.010     584.891
  O      180.492     153.772     584.581
  P      180.298     153.073     583.151
  C      182.626     151.987     582.969
  O      181.236     151.766     583.178
  C      183.441     150.725     583.255
  O      183.542     150.527     584.691
  C      182.858     149.433     582.650
  O      183.974     148.613     582.295
  C      182.101     148.836     583.821
  O      181.840     147.447     583.658
  C      183.040     149.200     584.984
  N      182.359     149.142     586.274
  C      182.554     147.983     587.039
  O      183.210     147.045     586.582
  N      181.961     147.897     588.276
  C      181.159     148.837     588.665
  N      180.602     148.697     589.902
  C      180.823     150.007     587.837
  C      181.462     150.106     586.671
  O      180.490     153.962     581.972
  O      178.830     152.437     583.239
  H      182.699     146.975     583.611
  H      178.142     153.142     583.119
  H      180.101     150.741     588.182
  H      181.282     150.935     585.997
  H      183.900     148.521     585.012
  H      181.135     149.346     583.937
  H      182.215     149.612     581.780
  H      184.457     150.885     582.877
  H      180.870     147.882     590.441
  H      182.948     152.778     583.658
  H      180.028     149.403     590.332
  H      182.801     152.341     581.947
  P      184.059     147.888     580.869
  C      186.538     148.301     580.350
  O      185.559     147.340     580.717
  O      183.564     148.703     579.717
  O      183.199     146.545     581.052
  H      182.985     146.175     580.175
  H      187.528     147.885     580.547
  H      186.413     149.222     580.929
  H      186.449     148.523     579.284
  H      180.129     155.298     585.889
  H      178.810     154.907     584.812
  H      180.209     155.759     584.206

 3  4  5  6  7  8  9  10  11  12  13  23  27  28  29  30  32 0
 6-311+G(2d,p)
 ****
 34  35 0
 6-311+G(2d,p)
 ****
 1  2  14  15  16  17  18  19  20  21  22  24  25  26 0
 3-21G
 ****
 31  33  36  37  38  39  40  41  42  43  44  45  46 0
 3-21G
 ****


