%nproc=1
%NoSave
%Mem=1900MB
#P OB98/GEN NMR

erre ene a

0 1
  C      144.154     -81.597     -91.275
  O      145.040     -82.041     -92.305
  P      145.804     -80.903     -93.139
  C      147.137     -78.836     -92.307
  O      146.899     -80.231     -92.182
  C      147.962     -78.334     -91.122
  O      147.319     -78.622     -89.862
  C      149.340     -78.980     -91.024
  O      150.221     -78.449     -91.999
  C      149.710     -78.651     -89.585
  O      150.178     -77.295     -89.484
  C      148.358     -78.785     -88.865
  N      147.777     -81.082     -84.331
  C      147.923     -79.784     -84.673
  N      148.077     -79.253     -85.905
  C      148.054     -80.214     -86.842
  C      147.911     -81.578     -86.645
  C      147.770     -82.012     -85.318
  N      147.639     -83.335     -84.969
  N      147.941     -82.251     -87.852
  C      148.125     -81.309     -88.756
  N      148.189     -80.062     -88.196
  O      144.694     -79.764     -93.310
  O      146.320     -81.375     -94.459
  H      149.424     -76.710     -89.703
  H      144.388     -79.732     -94.235
  H      147.921     -79.076     -83.848
  H      148.221     -81.483     -89.822
  H      148.209     -78.003     -88.110
  H      150.497     -79.297     -89.184
  H      149.256     -80.068     -91.151
  H      148.068     -77.245     -91.217
  H      146.191     -78.291     -92.355
  H      147.623     -83.568     -83.987
  H      147.719     -84.042     -85.686
  H      147.655     -78.650     -93.255
  P      150.748     -79.436     -93.149
  C      149.380     -80.143     -95.208
  O      149.394     -80.020     -93.795
  O      151.287     -80.671     -92.291
  O      151.714     -78.831     -94.106
  H      150.661     -80.927     -91.591
  H      148.424     -80.582     -95.507
  H      150.192     -80.797     -95.539
  H      149.480     -79.160     -95.668
  H      143.710     -82.445     -90.797
  H      143.387     -80.986     -91.703
  H      144.702     -81.027     -90.554

 3  4  5  6  7  8  9  10  11  12  22  25  29  30  31  32 0
 6-311+G(2d,p)
 ****
 33  36  37 0
 6-311+G(2d,p)
 ****
 1  2  13  14  15  16  17  18  19  20  21  23  24  26 0
 3-21G
 ****
 27  28  34  35  38  39  40  41  42  43  44  45  46  47  48 0
 3-21G
 ****


