%nproc=1
%NoSave
%Mem=1900MB
#P OB98/GEN NMR

erre ene a

0 1
  C       -0.811      38.612      -0.569
  O       -1.193      39.637       0.351
  P       -2.159      39.179       1.550
  C       -0.509      38.193       3.290
  O       -1.321      39.295       2.916
  C        0.018      38.357       4.719
  O        0.730      39.623       4.862
  C       -1.086      38.339       5.789
  O       -0.529      37.698       6.944
  C       -1.304      39.820       6.045
  O       -2.007      40.083       7.248
  C        0.138      40.309       5.987
  N        0.258      44.741       8.506
  C        0.112      43.467       8.928
  N        0.086      42.336       8.191
  C        0.240      42.622       6.887
  C        0.398      43.870       6.306
  C        0.405      44.971       7.180
  N        0.532      46.274       6.759
  N        0.502      43.758       4.927
  C        0.335      42.470       4.691
  N        0.257      41.740       5.842
  O       -2.312      37.603       1.325
  O       -3.474      39.884       1.560
  H       -2.938      39.796       7.158
  H       -3.154      37.403       0.876
  H       -0.005      43.338      10.001
  H        0.264      42.018       3.711
  H        0.706      40.027       6.883
  H       -1.889      40.248       5.222
  H       -1.987      37.802       5.480
  H        0.739      37.554       4.915
  H        0.337      38.101       2.605
  H        0.520      46.997       7.461
  H        0.631      46.488       5.778
  H       -1.090      37.270       3.185
  P       -1.408      36.602       7.719
  C       -1.501      34.312       6.569
  O       -0.721      35.200       7.345
  O       -2.715      36.565       6.791
  O       -1.685      36.874       9.158
  H       -2.478      36.464       5.853
  H       -0.892      33.439       6.320
  H       -1.822      34.797       5.644
  H       -2.373      33.982       7.142
  H       -0.172      39.027      -1.320
  H       -1.685      38.203      -1.030
  H       -0.289      37.839      -0.045

 3  4  5  6  7  8  9  10  11  12  22  25  29  30  31  32 0
 6-311+G(2d,p)
 ****
 33  36  37 0
 6-311+G(2d,p)
 ****
 1  2  13  14  15  16  17  18  19  20  21  23  24  26 0
 3-21G
 ****
 27  28  34  35  38  39  40  41  42  43  44  45  46  47  48 0
 3-21G
 ****


