%nproc=1
%NoSave
%Mem=1900MB
#P OB98/GEN NMR

erre ene a

0 1
  C      102.045     -85.326     -98.779
  O      103.324     -85.540     -99.340
  H      101.657     -86.283     -98.419
  H      101.355     -84.931     -99.530
  H      102.110     -84.636     -97.934
  P      104.079     -84.300    -100.015
  C      102.657     -84.750    -102.129
  O      103.130     -83.783    -101.198
  C      102.413     -84.109    -103.493
  O      101.392     -83.096    -103.395
  C      103.634     -83.412    -104.081
  O      104.557     -84.358    -104.580
  C      102.974     -82.526    -105.126
  O      102.632     -83.282    -106.298
  C      101.697     -82.075    -104.374
  N      101.827     -80.769    -103.737
  C      101.574     -79.658    -104.552
  O      101.277     -79.813    -105.736
  N      101.686     -78.405    -104.001
  C      101.977     -78.270    -102.746
  N      102.067     -77.002    -102.263
  C      102.218     -79.414    -101.846
  C      102.138     -80.620    -102.405
  O      105.502     -84.533    -100.422
  O      103.961     -83.136     -98.922
  H      103.480     -83.549    -106.705
  H      104.754     -83.119     -98.354
  H      102.448     -79.255    -100.803
  H      102.301     -81.516    -101.811
  H      100.843     -82.033    -105.063
  H      103.622     -81.711    -105.447
  H      104.102     -82.766    -103.328
  H      102.041     -84.888    -104.171
  H      101.874     -76.249    -102.915
  H      101.719     -85.152    -101.729
  H      102.126     -76.782    -101.280
  H      103.371     -85.576    -102.224
  P      106.095     -83.980    -104.832
  C      105.652     -82.986    -107.162
  O      106.077     -82.725    -105.833
  O      106.965     -85.113    -105.261
  O      106.549     -83.313    -103.451
  H      106.712     -84.011    -102.768
  H      105.682     -82.080    -107.730
  H      104.652     -83.366    -107.149
  H      106.302     -83.709    -107.609

 6  7  8  9  10  11  12  13  14  15  16  26  30  31  32  33  35 0
 6-311+G(2d,p)
 ****
 37  38 0
 6-311+G(2d,p)
 ****
 1  2  3  4  5  17  18  19  20  21  22  23  24  25 0
 3-21G
 ****
 27  28  29  34  36  39  40  41  42  43  44  45  46 0
 3-21G
 ****


