%nproc=1
%NoSave
%Mem=1900MB
#P OB98/GEN NMR

erre ene a

0 1
  C      362.826    -152.198     -41.901
  O      361.919    -153.281     -41.941
  H      362.375    -151.388     -41.322
  H      363.025    -151.834     -42.911
  H      363.762    -152.492     -41.419
  P      362.401    -154.665     -42.589
  C      360.085    -155.198     -43.586
  O      361.458    -154.940     -43.856
  C      359.247    -154.891     -44.824
  O      359.292    -153.477     -45.114
  C      359.741    -155.583     -46.088
  O      359.403    -156.955     -46.096
  C      359.059    -154.744     -47.156
  O      357.701    -155.159     -47.351
  C      359.112    -153.329     -46.540
  N      360.179    -152.516     -47.127
  C      359.832    -151.756     -48.239
  O      358.703    -151.736     -48.723
  N      360.856    -151.059     -48.824
  C      362.176    -151.158     -48.495
  O      363.080    -150.714     -49.195
  C      362.474    -151.924     -47.277
  C      361.479    -152.569     -46.663
  O      362.540    -155.809     -41.642
  O      363.805    -154.294     -43.267
  H      364.530    -154.613     -42.695
  H      357.340    -154.577     -48.051
  H      360.621    -150.537     -49.657
  H      363.504    -151.968     -46.941
  H      361.677    -153.168     -45.780
  H      358.158    -152.810     -46.689
  H      359.572    -154.822     -48.116
  H      360.827    -155.458     -46.179
  H      358.204    -155.162     -44.613
  H      359.763    -154.556     -42.758
  H      359.971    -156.247     -43.289
  P      360.435    -158.036     -46.678
  C      358.614    -159.794     -47.124
  O      359.643    -158.991     -47.693
  O      361.253    -158.751     -45.654
  O      361.376    -157.183     -47.657
  H      362.308    -157.376     -47.444
  H      358.158    -160.386     -47.890
  H      357.876    -159.163     -46.675
  H      359.034    -160.437     -46.379

 6  7  8  9  10  11  12  13  14  15  16  27  31  32  33  34  35 0
 6-311+G(2d,p)
 ****
 36  37 0
 6-311+G(2d,p)
 ****
 1  2  3  4  5  17  18  19  20  21  22  23  24  25 0
 3-21G
 ****
 26  28  29  30  38  39  40  41  42  43  44  45 0
 3-21G
 ****


