%nproc=1
%NoSave
%Mem=1900MB
#P OB98/GEN NMR

erre ene a

0 1
  C      791.944    -326.029     289.577
  O      792.310    -327.408     289.758
  P      792.719    -328.003     291.192
  C      791.921    -327.851     293.642
  O      791.667    -327.477     292.289
  C      790.644    -327.804     294.487
  O      790.085    -326.480     294.498
  C      789.533    -328.739     294.019
  O      789.795    -330.073     294.422
  C      788.313    -328.091     294.664
  O      788.198    -328.494     296.046
  C      788.644    -326.597     294.559
  N      784.196    -325.204     292.440
  C      784.495    -325.806     293.616
  N      785.706    -326.152     294.110
  C      786.681    -325.786     293.254
  C      786.533    -325.174     292.022
  C      785.221    -324.887     291.613
  N      784.927    -324.296     290.400
  N      787.768    -324.993     291.417
  C      788.639    -325.462     292.294
  N      788.036    -325.960     293.420
  O      794.147    -327.776     291.557
  O      792.401    -329.566     291.090
  H      787.574    -327.890     296.478
  H      792.990    -330.062     291.688
  H      783.636    -326.030     294.252
  H      789.716    -325.463     292.149
  H      788.325    -326.051     295.459
  H      787.377    -328.373     294.172
  H      789.441    -328.689     292.927
  H      790.931    -328.040     295.525
  H      792.663    -327.162     294.053
  H      783.960    -324.148     290.158
  H      785.684    -324.092     289.761
  H      792.336    -328.865     293.639
  P      790.066    -331.206     293.316
  C      792.093    -332.563     292.517
  O      791.568    -331.721     293.530
  O      789.708    -330.849     291.916
  O      789.198    -332.446     293.846
  H      788.918    -332.993     293.079
  H      791.726    -333.590     292.679
  H      793.176    -332.563     292.586
  H      791.805    -332.214     291.532
  H      791.711    -325.854     288.547
  H      792.760    -325.402     289.870
  H      791.088    -325.805     290.179

 3  4  5  6  7  8  9  10  11  12  22  25  29  30  31  32 0
 6-311+G(2d,p)
 ****
 33  36  37 0
 6-311+G(2d,p)
 ****
 1  2  13  14  15  16  17  18  19  20  21  23  24  26 0
 3-21G
 ****
 27  28  34  35  38  39  40  41  42  43  44  45  46  47  48 0
 3-21G
 ****


