%nproc=1
%NoSave
%Mem=1900MB
#P OB98/GEN NMR

erre ene a

0 1
  C      215.123    -637.658       1.683
  O      214.883    -636.398       2.285
  H      214.724    -637.645       0.668
  H      214.624    -638.449       2.254
  H      216.197    -637.852       1.639
  P      215.368    -636.220       3.804
  C      213.512    -634.564       4.538
  O      214.888    -634.740       4.209
  C      213.289    -633.185       5.160
  O      213.909    -633.107       6.457
  C      213.858    -632.031       4.335
  O      212.941    -631.656       3.318
  C      213.963    -630.952       5.403
  O      212.678    -630.332       5.608
  C      214.372    -631.743       6.656
  N      217.946    -630.854      10.228
  C      216.636    -630.562      10.194
  N      215.751    -630.774       9.191
  C      216.358    -631.372       8.140
  C      217.698    -631.728       8.042
  C      218.509    -631.452       9.151
  N      219.863    -631.742       9.185
  N      217.958    -632.307       6.813
  C      216.780    -632.356       6.216
  N      215.790    -631.768       6.958
  O      216.802    -636.547       4.072
  O      214.311    -637.149       4.571
  H      212.441    -629.899       4.766
  H      213.421    -637.036       4.192
  H      216.224    -630.097      11.081
  H      216.596    -632.830       5.247
  H      213.868    -631.365       7.561
  H      214.654    -630.152       5.126
  H      214.853    -632.257       3.955
  H      212.208    -633.057       5.311
  H      213.194    -635.348       5.242
  H      220.399    -631.344       9.933
  H      220.296    -632.072       8.328
  H      212.933    -634.677       3.617
  P      213.392    -631.645       1.775
  C      211.456    -629.959       1.614
  O      212.128    -631.040       0.980
  O      213.915    -632.947       1.270
  O      214.463    -630.464       1.686
  H      214.989    -630.554       0.862
  H      210.639    -629.639       1.002
  H      212.138    -629.146       1.752
  H      211.085    -630.278       2.565

 6  7  8  9  10  11  12  13  14  15  25  28  32  33  34  35 0
 6-311+G(2d,p)
 ****
 36  39  40 0
 6-311+G(2d,p)
 ****
 1  2  3  4  5  16  17  18  19  20  21  22  23  24 0
 3-21G
 ****
 26  27  29  30  31  37  38  41  42  43  44  45  46  47 0
 3-21G
 ****
 48 0
 3-21G
 ****


