%nproc=1
%NoSave
%Mem=1900MB
#P OB98/GEN NMR

erre ene a

0 1
  C      -50.448     -83.599    -131.001
  O      -50.982     -84.866    -130.658
  P      -52.081     -84.916    -129.487
  C      -52.747     -87.415    -129.719
  O      -52.091     -86.424    -128.938
  C      -52.438     -88.824    -129.206
  O      -51.042     -89.119    -129.455
  C      -52.704     -89.015    -127.713
  O      -53.214     -90.337    -127.524
  C      -51.322     -88.928    -127.093
  O      -51.262     -89.610    -125.840
  C      -50.457     -89.541    -128.206
  N      -49.059     -89.131    -128.105
  C      -48.189     -90.008    -127.451
  O      -48.626     -91.031    -126.923
  N      -46.860     -89.681    -127.364
  C      -46.453     -88.527    -127.799
  N      -45.126     -88.249    -127.694
  C      -47.361     -87.519    -128.384
  C      -48.632     -87.895    -128.525
  O      -53.460     -84.804    -130.287
  O      -51.937     -83.848    -128.453
  H      -50.367     -89.466    -125.460
  H      -54.134     -84.336    -129.757
  H      -46.977     -86.560    -128.697
  H      -49.364     -87.229    -128.965
  H      -50.502     -90.636    -128.172
  H      -51.052     -87.878    -126.930
  H      -53.413     -88.285    -127.310
  H      -53.030     -89.537    -129.792
  H      -44.527     -88.950    -127.275
  H      -52.395     -87.346    -130.753
  H      -44.719     -87.377    -128.005
  H      -53.826     -87.228    -129.713
  P      -54.636     -90.492    -126.796
  C      -54.606     -92.848    -127.813
  O      -54.861     -92.071    -126.660
  O      -55.646     -90.125    -127.991
  O      -54.906     -89.659    -125.588
  H      -56.560     -90.121    -127.655
  H      -54.667     -93.905    -127.546
  H      -53.606     -92.638    -128.205
  H      -55.360     -92.637    -128.580
  H      -49.734     -83.715    -131.789
  H      -49.969     -83.170    -130.146
  H      -51.238     -82.955    -131.327

 3  4  5  6  7  8  9  10  11  12  13  21  23  27  28  29  30  32 0
 6-311+G(2d,p)
 ****
 34  35 0
 6-311+G(2d,p)
 ****
 1  2  14  15  16  17  18  19  20  22  24  25  26 0
 3-21G
 ****
 31  33  36  37  38  39  40  41  42  43  44  45  46 0
 3-21G
 ****


