%nproc=1
%NoSave
%Mem=1900MB
#P OB98/GEN NMR

erre ene a

0 1
  C      560.635      56.956     -47.574
  O      560.972      57.781     -48.678
  P      560.110      57.747     -50.030
  C      561.948      56.913     -51.624
  O      561.135      58.016     -51.239
  C      563.387      57.388     -51.892
  O      563.408      58.131     -53.152
  C      563.933      58.312     -50.791
  O      565.196      57.914     -50.243
  C      563.914      59.684     -51.452
  O      564.777      60.630     -50.846
  C      564.196      59.315     -52.912
  N      563.862      60.406     -53.837
  C      564.766      61.456     -53.934
  O      565.825      61.520     -53.317
  N      564.393      62.485     -54.754
  C      563.188      62.638     -55.370
  O      562.888      63.630     -55.998
  C      562.246      61.504     -55.189
  C      562.630      60.440     -54.470
  O      558.903      58.626     -50.049
  O      559.776      56.188     -50.215
  H      565.076      61.246     -51.547
  H      560.562      55.612     -50.286
  H      565.038      63.258     -54.832
  H      561.278      61.592     -55.653
  H      561.962      59.607     -54.325
  H      565.241      59.049     -53.064
  H      562.892      60.079     -51.365
  H      563.261      58.324     -49.912
  H      564.016      56.499     -52.009
  H      561.542      56.474     -52.541
  H      561.927      56.145     -50.847
  P      565.463      57.546     -48.711
  C      567.681      58.881     -48.824
  O      567.025      57.702     -48.423
  O      564.863      56.246     -48.260
  O      564.811      58.770     -47.901
  H      564.502      58.460     -47.038
  H      568.739      58.649     -49.023
  H      567.642      59.611     -48.012
  H      567.231      59.307     -49.720
  H      561.328      57.127     -46.777
  H      560.678      55.929     -47.870
  H      559.645      57.190     -47.243

 3  4  5  6  7  8  9  10  11  12  13  23  28  29  30  31  32 0
 6-311+G(2d,p)
 ****
 33  34 0
 6-311+G(2d,p)
 ****
 1  2  14  15  16  17  18  19  20  21  22  24  25  26  27 0
 3-21G
 ****
 35  36  37  38  39  40  41  42  43  44  45 0
 3-21G
 ****


