%nproc=1
%NoSave
%Mem=1900MB
#P OB98/GEN NMR

erre ene a

0 1
  C      106.636     297.417      64.384
  O      107.826     296.713      64.092
  H      106.372     297.244      65.432
  H      105.818     297.060      63.751
  H      106.784     298.488      64.229
  P      108.323     296.757      62.564
  C      107.514     294.373      61.881
  O      108.606     295.214      62.217
  C      107.988     293.258      60.954
  O      106.885     292.404      60.578
  C      108.588     293.752      59.641
  O      109.921     294.213      59.781
  C      108.511     292.482      58.814
  O      109.556     291.578      59.218
  C      107.122     291.941      59.222
  N      106.047     292.387      58.332
  C      105.838     291.632      57.172
  O      106.540     290.651      56.929
  N      104.854     292.024      56.295
  C      104.134     293.072      56.557
  N      103.185     293.424      55.646
  C      104.311     293.885      57.773
  C      105.272     293.493      58.605
  O      109.801     297.366      62.666
  O      107.429     297.466      61.604
  H      110.392     292.079      59.185
  H      110.243     297.320      61.784
  H      103.694     294.758      57.942
  H      105.461     294.046      59.520
  H      107.119     290.842      59.246
  H      108.635     292.660      57.744
  H      107.956     294.514      59.172
  H      108.705     292.636      61.512
  H      103.129     292.883      54.793
  H      106.749     294.980      61.383
  H      102.707     294.315      55.675
  H      107.085     293.933      62.787
  P      110.349     295.516      58.945
  C      111.312     293.967      57.093
  O      111.535     295.071      57.959
  O      111.095     296.414      60.035
  O      109.217     296.249      58.292
  H      110.889     297.362      59.917
  H      112.188     293.794      56.503
  H      110.484     294.180      56.449
  H      111.096     293.095      57.675

 6  7  8  9  10  11  12  13  14  15  16  26  30  31  32  33  35 0
 6-311+G(2d,p)
 ****
 37  38 0
 6-311+G(2d,p)
 ****
 1  2  3  4  5  17  18  19  20  21  22  23  24  25 0
 3-21G
 ****
 27  28  29  34  36  39  40  41  42  43  44  45  46 0
 3-21G
 ****


