%nproc=1
%NoSave
%Mem=1900MB
#P OB98/GEN NMR

erre ene a

0 1
  C     -116.711    -166.311    -102.232
  O     -116.517    -167.683    -102.524
  P     -117.745    -168.617    -102.940
  C     -117.510    -170.192    -100.852
  O     -118.308    -169.324    -101.626
  C     -118.315    -170.654     -99.631
  O     -118.793    -169.515     -98.890
  C     -119.526    -171.491    -100.043
  O     -119.215    -172.873    -100.003
  C     -120.575    -171.077     -99.028
  O     -120.391    -171.792     -97.793
  C     -120.244    -169.576     -98.834
  N     -120.781    -168.613     -99.814
  C     -121.359    -167.428     -99.369
  O     -121.428    -167.105     -98.188
  N     -121.888    -166.620    -100.345
  C     -121.850    -166.863    -101.687
  O     -122.526    -166.269    -102.521
  C     -120.995    -167.980    -102.105
  C     -120.529    -168.803    -101.165
  O     -117.037    -169.814    -103.731
  O     -118.806    -167.956    -103.757
  H     -121.133    -171.553     -97.209
  H     -117.098    -169.675    -104.693
  H     -122.431    -165.828    -100.019
  H     -120.822    -168.128    -103.161
  H     -119.925    -169.661    -101.451
  H     -120.556    -169.232     -97.840
  H     -121.578    -171.320     -99.375
  H     -119.869    -171.195    -101.043
  H     -117.659    -171.235     -98.972
  H     -116.596    -169.677    -100.533
  H     -117.203    -171.053    -101.452
  P     -120.184    -173.924    -100.723
  C     -120.651    -175.110     -98.498
  O     -121.212    -174.397     -99.584
  O     -119.505    -175.021    -101.472
  O     -121.068    -173.002    -101.690
  H     -120.700    -173.025    -102.598
  H     -121.410    -175.216     -97.719
  H     -119.793    -174.572     -98.086
  H     -120.342    -176.105     -98.827
  H     -115.773    -165.864    -101.977
  H     -117.388    -166.214    -101.409
  H     -117.119    -165.818    -103.089

 3  4  5  6  7  8  9  10  11  12  13  23  28  29  30  31  32 0
 6-311+G(2d,p)
 ****
 33  34 0
 6-311+G(2d,p)
 ****
 1  2  14  15  16  17  18  19  20  21  22  24  25  26  27 0
 3-21G
 ****
 35  36  37  38  39  40  41  42  43  44  45 0
 3-21G
 ****


