%nproc=1
%NoSave
%Mem=1900MB
#P OB98/GEN NMR

erre ene a

0 1
  C      819.681      45.191    -267.482
  O      820.730      44.357    -267.028
  H      819.650      45.147    -268.574
  H      819.856      46.228    -267.180
  H      818.721      44.845    -267.090
  P      821.039      44.308    -265.457
  C      822.334      45.829    -263.807
  O      821.717      45.714    -265.085
  C      823.722      46.458    -263.935
  O      824.633      45.528    -264.561
  C      823.763      47.717    -264.783
  O      823.225      48.816    -264.076
  C      825.251      47.805    -265.093
  O      825.976      48.330    -263.969
  C      825.597      46.309    -265.310
  N      825.599      45.915    -266.717
  C      826.831      46.004    -267.373
  O      827.827      46.413    -266.782
  N      826.888      45.640    -268.701
  C      825.833      45.190    -269.299
  N      825.957      44.847    -270.611
  C      824.524      45.040    -268.630
  C      824.480      45.431    -267.359
  O      821.794      43.110    -264.967
  O      819.593      44.415    -264.774
  H      826.907      48.054    -264.092
  H      819.241      43.525    -264.584
  H      823.676      44.655    -269.166
  H      823.558      45.354    -266.786
  H      826.589      46.082    -264.889
  H      825.465      48.441    -265.945
  H      823.225      47.558    -265.730
  H      824.096      46.654    -262.921
  H      826.883      44.947    -271.025
  H      822.410      44.819    -263.397
  H      825.257      44.334    -271.129
  H      821.709      46.429    -263.135
  P      823.230      50.298    -264.686
  C      825.039      51.917    -265.556
  O      824.775      50.635    -264.983
  O      822.505      51.321    -263.882
  O      822.638      50.102    -266.164
  H      821.656      49.997    -266.128
  H      826.092      52.030    -265.708
  H      824.691      52.682    -264.894
  H      824.532      51.999    -266.495

 6  7  8  9  10  11  12  13  14  15  16  26  30  31  32  33  35 0
 6-311+G(2d,p)
 ****
 37  38 0
 6-311+G(2d,p)
 ****
 1  2  3  4  5  17  18  19  20  21  22  23  24  25 0
 3-21G
 ****
 27  28  29  34  36  39  40  41  42  43  44  45  46 0
 3-21G
 ****


