%nproc=1
%NoSave
%Mem=1900MB
#P OB98/GEN NMR

erre ene a

0 1
  C      -37.786     182.680     -85.063
  O      -37.869     183.485     -83.904
  H      -38.780     182.285     -85.287
  H      -37.109     181.841     -84.890
  H      -37.440     183.266     -85.922
  P      -36.592     184.351     -83.471
  C      -34.376     183.773     -82.280
  O      -35.415     183.313     -83.131
  C      -33.252     182.737     -82.217
  O      -32.644     182.585     -83.517
  C      -32.118     183.103     -81.267
  O      -32.498     182.892     -79.918
  C      -31.016     182.187     -81.775
  O      -31.189     180.849     -81.267
  C      -31.259     182.229     -83.303
  N      -30.366     183.154     -84.002
  C      -29.469     182.588     -84.901
  O      -29.384     181.376     -85.094
  N      -28.653     183.473     -85.571
  C      -28.598     184.818     -85.366
  O      -27.812     185.561     -85.947
  C      -29.541     185.360     -84.372
  C      -30.372     184.514     -83.749
  O      -36.830     185.390     -82.423
  O      -36.101     185.012     -84.849
  H      -30.349     180.378     -81.437
  H      -36.407     185.937     -84.899
  H      -27.991     183.079     -86.217
  H      -29.523     186.426     -84.181
  H      -31.075     184.891     -83.012
  H      -31.124     181.229     -83.740
  H      -30.021     182.512     -81.473
  H      -31.808     184.146     -81.429
  H      -33.699     181.771     -81.942
  H      -34.788     183.926     -81.272
  H      -34.000     184.731     -82.664
  P      -31.573     183.410     -78.720
  C      -29.171     183.041     -77.902
  O      -30.189     182.594     -78.790
  O      -32.221     183.422     -77.373
  O      -31.145     184.889     -79.164
  H      -31.632     185.545     -78.636
  H      -28.298     182.436     -78.027
  H      -29.518     182.962     -76.893
  H      -28.932     184.061     -78.118

 6  7  8  9  10  11  12  13  14  15  16  26  31  32  33  34  35 0
 6-311+G(2d,p)
 ****
 36  37 0
 6-311+G(2d,p)
 ****
 1  2  3  4  5  17  18  19  20  21  22  23  24  25 0
 3-21G
 ****
 27  28  29  30  38  39  40  41  42  43  44  45 0
 3-21G
 ****


