%nproc=1
%NoSave
%Mem=1900MB
#P OB98/GEN NMR

erre ene a

0 1
  C      196.509      16.948     552.158
  O      197.620      16.787     551.301
  H      195.948      17.834     551.845
  H      196.849      17.097     553.186
  H      195.850      16.076     552.105
  P      198.531      15.486     551.537
  C      200.242      17.074     552.671
  O      200.036      16.019     551.744
  C      201.677      17.067     553.189
  O      201.886      15.855     553.979
  C      202.748      17.089     552.086
  O      203.861      17.854     552.565
  C      203.179      15.630     552.003
  O      204.470      15.470     551.423
  C      203.092      15.239     553.478
  N      205.921      11.278     554.753
  C      206.229      12.624     554.715
  N      207.481      12.973     555.071
  N      205.380      13.552     554.360
  C      204.148      13.062     554.060
  C      203.721      11.758     554.052
  C      204.680      10.740     554.428
  O      204.472       9.529     554.458
  N      202.407      11.669     553.665
  C      202.043      12.921     553.437
  N      203.066      13.800     553.662
  O      198.564      14.815     550.084
  O      198.038      14.539     552.580
  H      204.437      15.832     550.512
  H      197.860      14.146     550.006
  H      206.618      10.601     555.022
  H      201.061      13.236     553.105
  H      203.938      15.620     554.063
  H      202.459      15.058     551.402
  H      208.178      12.321     555.401
  H      202.405      17.491     551.129
  H      207.717      13.961     555.092
  H      201.806      17.912     553.875
  H      199.553      16.944     553.513
  H      200.026      18.029     552.178
  P      203.874      19.426     552.271
  C      204.531      19.036     549.785
  O      204.823      19.693     551.008
  O      204.735      20.009     553.492
  O      202.516      20.051     552.209
  H      204.464      20.927     553.683
  H      205.253      19.318     549.047
  H      203.553      19.317     549.454
  H      204.567      17.977     549.932

 6  7  8  9  10  11  12  13  14  15  26  29  33  34 0
 6-311+G(2d,p)
 ****
 36  38  39  40  41 0
 6-311+G(2d,p)
 ****
 1  2  3  4  5  16  17  18  19  20  21  22  23  24  25 0
 3-21G
 ****
 27  28  30  31  32  35  37  42  43  44  45  46  47 0
 3-21G
 ****
 48  49 0
 3-21G
 ****


