%nproc=1
%NoSave
%Mem=1900MB
#P OB98/GEN NMR

erre ene a

0 1
  C      454.179     216.222    -733.336
  O      455.342     215.717    -733.965
  H      453.439     215.424    -733.222
  H      454.451     216.592    -732.342
  H      453.759     217.045    -733.914
  P      455.162     215.127    -735.450
  C      457.486     213.968    -735.475
  O      456.074     213.810    -735.508
  C      458.143     212.639    -735.088
  O      457.744     212.253    -733.758
  C      457.758     211.473    -735.988
  O      458.511     211.455    -737.195
  C      458.127     210.299    -735.098
  O      459.557     210.106    -735.110
  C      457.662     210.800    -733.722
  N      454.788     207.245    -731.424
  C      456.119     207.349    -731.620
  N      456.804     208.320    -732.239
  C      455.977     209.266    -732.695
  C      454.597     209.304    -732.591
  C      453.989     208.229    -731.909
  N      452.628     208.124    -731.729
  N      454.080     210.421    -733.221
  C      455.139     211.067    -733.665
  N      456.311     210.405    -733.388
  O      455.966     216.167    -736.368
  O      453.752     214.934    -735.909
  H      459.758     209.452    -734.416
  H      455.666     216.099    -737.290
  H      456.713     206.525    -731.206
  H      455.113     212.005    -734.200
  H      458.319     210.448    -732.912
  H      457.675     209.356    -735.418
  H      456.677     211.449    -736.193
  H      459.230     212.789    -735.083
  H      457.744     214.724    -734.725
  H      452.287     207.233    -731.391
  H      452.025     208.769    -732.215
  H      457.842     214.298    -736.455
  P      458.061     210.412    -738.331
  C      460.050     211.176    -739.830
  O      459.385     210.091    -739.182
  O      457.182     211.306    -739.324
  O      457.310     209.216    -737.823
  H      456.534     210.760    -739.794
  H      460.908     210.807    -740.353
  H      460.359     211.893    -739.098
  H      459.381     211.641    -740.524

 6  7  8  9  10  11  12  13  14  15  25  28  32  33  34  35 0
 6-311+G(2d,p)
 ****
 36  39  40 0
 6-311+G(2d,p)
 ****
 1  2  3  4  5  16  17  18  19  20  21  22  23  24 0
 3-21G
 ****
 26  27  29  30  31  37  38  41  42  43  44  45  46  47 0
 3-21G
 ****
 48 0
 3-21G
 ****


