%nproc=1
%NoSave
%Mem=1900MB
#P OB98/GEN NMR

erre ene a

0 1
  C      -99.142     351.864    -530.682
  O      -99.351     351.137    -531.876
  H      -98.159     352.348    -530.733
  H      -99.159     351.192    -529.819
  H      -99.911     352.635    -530.569
  P     -100.693     350.259    -531.952
  C     -101.531     348.527    -530.192
  O     -100.430     349.074    -530.896
  C     -101.045     347.457    -529.218
  O     -100.001     347.980    -528.370
  C     -102.120     346.934    -528.266
  O     -103.002     346.006    -528.870
  C     -101.230     346.269    -527.214
  O     -100.724     345.036    -527.731
  C     -100.116     347.331    -527.064
  N     -100.395     348.319    -526.024
  C     -100.456     347.840    -524.706
  O     -100.277     346.645    -524.464
  N     -100.753     348.723    -523.699
  C     -100.948     349.975    -523.964
  N     -101.240     350.804    -522.918
  C     -100.891     350.527    -525.329
  C     -100.614     349.654    -526.297
  O     -100.561     349.510    -533.362
  O     -101.974     351.001    -531.761
  H     -101.458     344.600    -528.204
  H     -101.273     348.818    -533.447
  H     -101.083     351.577    -525.511
  H     -100.556     349.985    -527.335
  H      -99.152     346.854    -526.853
  H     -101.762     346.037    -526.294
  H     -102.674     347.757    -527.796
  H     -100.606     346.641    -529.807
  H     -101.334     350.383    -522.005
  H     -102.227     348.090    -530.919
  H     -101.562     351.755    -523.043
  H     -102.058     349.313    -529.640
  P     -104.421     345.760    -528.144
  C     -105.152     344.608    -525.936
  O     -104.152     344.755    -526.925
  O     -105.211     344.855    -529.199
  O     -105.173     347.013    -527.800
  H     -106.169     345.054    -529.187
  H     -104.823     343.908    -525.197
  H     -106.053     344.251    -526.390
  H     -105.337     345.555    -525.473

 6  7  8  9  10  11  12  13  14  15  16  26  30  31  32  33  35 0
 6-311+G(2d,p)
 ****
 37  38 0
 6-311+G(2d,p)
 ****
 1  2  3  4  5  17  18  19  20  21  22  23  24  25 0
 3-21G
 ****
 27  28  29  34  36  39  40  41  42  43  44  45  46 0
 3-21G
 ****


