%nproc=1
%NoSave
%Mem=1900MB
#P OB98/GEN NMR

erre ene a

0 1
  C     -385.135    -775.641    -897.190
  O     -385.419    -776.877    -896.550
  H     -385.686    -774.836    -896.700
  H     -384.066    -775.434    -897.100
  H     -385.401    -775.694    -898.250
  P     -386.948    -777.383    -896.580
  C     -386.202    -779.102    -898.380
  O     -386.911    -778.872    -897.170
  C     -385.956    -780.599    -898.560
  O     -384.895    -781.053    -897.710
  C     -387.178    -781.475    -898.220
  O     -388.111    -781.521    -899.270
  C     -386.477    -782.822    -898.020
  O     -386.172    -783.407    -899.300
  C     -385.188    -782.415    -897.290
  N     -385.039    -785.430    -893.150
  C     -384.902    -785.685    -894.470
  N     -384.960    -784.837    -895.510
  C     -385.182    -783.585    -895.070
  C     -385.340    -783.156    -893.760
  C     -385.270    -784.151    -892.770
  N     -385.413    -783.896    -891.420
  N     -385.595    -781.792    -893.710
  C     -385.543    -781.407    -894.970
  N     -385.316    -782.457    -895.840
  O     -387.599    -776.528    -897.770
  O     -387.690    -777.231    -895.290
  H     -385.723    -784.258    -899.120
  H     -388.569    -776.505    -897.670
  H     -384.729    -786.751    -894.730
  H     -385.671    -780.379    -895.310
  H     -384.338    -783.036    -897.560
  H     -387.114    -783.534    -897.470
  H     -387.642    -781.149    -897.270
  H     -385.645    -780.768    -899.610
  H     -385.229    -778.593    -898.340
  H     -385.514    -784.683    -890.820
  H     -385.737    -782.969    -891.140
  H     -386.769    -778.694    -899.230
  P     -389.549    -782.163    -898.950
  C     -390.560    -780.489    -897.240
  O     -390.506    -780.921    -898.570
  O     -389.336    -782.888    -897.540
  O     -390.073    -783.080    -900.000
  H     -389.944    -783.635    -897.410
  H     -391.236    -779.664    -897.160
  H     -389.585    -780.183    -896.925
  H     -390.901    -781.290    -896.618

 6  7  8  9  10  11  12  13  14  15  25  28  32  33  34  35 0
 6-311+G(2d,p)
 ****
 36  39  40 0
 6-311+G(2d,p)
 ****
 1  2  3  4  5  16  17  18  19  20  21  22  23  24 0
 3-21G
 ****
 26  27  29  30  31  37  38  41  42  43  44  45  46  47 0
 3-21G
 ****
 48 0
 3-21G
 ****


