%nproc=1
%NoSave
%Mem=1900MB
#P OB98/GEN NMR

erre ene a

0 1
  C      226.826    -277.568     182.685
  O      225.951    -276.988     181.739
  H      226.656    -278.647     182.703
  H      226.620    -277.163     183.680
  H      227.868    -277.376     182.411
  P      226.164    -275.425     181.422
  C      223.672    -274.642     181.673
  O      224.987    -274.667     182.201
  C      222.807    -273.635     182.434
  O      221.543    -273.493     181.742
  C      222.508    -274.041     183.873
  O      222.503    -272.868     184.688
  C      221.106    -274.622     183.797
  O      220.435    -274.566     185.056
  C      220.484    -273.773     182.679
  N      219.362    -274.451     182.029
  C      218.106    -274.302     182.627
  O      217.987    -273.647     183.664
  N      217.024    -274.933     182.065
  C      217.192    -275.705     181.037
  N      216.087    -276.321     180.539
  C      218.507    -275.934     180.405
  C      219.533    -275.273     180.940
  O      225.725    -275.342     179.885
  O      227.543    -274.928     181.700
  H      219.468    -274.615     184.887
  H      224.936    -275.871     179.677
  H      218.599    -276.599     179.558
  H      220.534    -275.377     180.533
  H      220.126    -272.815     183.074
  H      221.154    -275.676     183.492
  H      223.216    -274.765     184.278
  H      223.300    -272.656     182.390
  H      215.205    -276.152     181.012
  H      223.217    -275.636     181.740
  H      216.108    -276.981     179.777
  H      223.737    -274.366     180.616
  P      223.833    -272.465     185.487
  C      223.281    -273.537     187.768
  O      224.115    -273.567     186.618
  O      223.906    -271.050     185.953
  O      224.998    -272.769     184.423
  H      225.672    -272.066     184.505
  H      223.571    -274.318     188.440
  H      222.262    -273.680     187.474
  H      223.381    -272.590     188.257

 6  7  8  9  10  11  12  13  14  15  16  26  30  31  32  33  35 0
 6-311+G(2d,p)
 ****
 37  38 0
 6-311+G(2d,p)
 ****
 1  2  3  4  5  17  18  19  20  21  22  23  24  25 0
 3-21G
 ****
 27  28  29  34  36  39  40  41  42  43  44  45  46 0
 3-21G
 ****


