%nproc=1
%NoSave
%Mem=1900MB
#P OB98/GEN NMR

erre ene a

0 1
  C     -915.697    -565.254    -495.953
  O     -915.671    -565.601    -497.344
  P     -915.339    -567.107    -497.758
  C     -917.056    -567.066    -499.690
  O     -915.710    -567.309    -499.306
  C     -917.401    -567.782    -500.992
  O     -916.590    -567.235    -502.072
  C     -917.113    -569.279    -501.004
  O     -918.151    -570.171    -500.560
  C     -916.914    -569.554    -502.502
  O     -918.210    -569.737    -503.131
  C     -916.260    -568.285    -503.016
  N     -912.483    -570.367    -505.764
  C     -913.822    -570.426    -505.882
  N     -914.762    -569.846    -505.115
  C     -914.185    -569.115    -504.140
  C     -912.840    -568.968    -503.894
  C     -911.957    -569.628    -504.752
  N     -910.589    -569.563    -504.646
  N     -912.616    -568.138    -502.784
  C     -913.830    -567.849    -502.370
  N     -914.817    -568.393    -503.160
  O     -915.848    -568.163    -496.836
  O     -913.734    -567.103    -497.793
  H     -918.430    -570.673    -503.000
  H     -913.412    -567.969    -497.451
  H     -914.201    -571.009    -506.714
  H     -914.047    -567.229    -501.486
  H     -916.654    -567.969    -503.993
  H     -916.356    -570.474    -502.686
  H     -916.183    -569.515    -500.456
  H     -918.461    -567.606    -501.249
  H     -917.202    -565.990    -499.811
  H     -910.026    -570.115    -505.286
  H     -910.176    -569.078    -503.852
  H     -917.696    -567.367    -498.855
  P     -917.981    -571.038    -499.211
  C     -920.553    -570.520    -498.930
  O     -919.477    -571.445    -498.796
  O     -917.202    -570.383    -498.127
  O     -917.373    -572.399    -499.746
  H     -917.975    -572.942    -500.288
  H     -921.501    -571.054    -498.803
  H     -920.539    -570.053    -499.913
  H     -920.462    -569.750    -498.141
  H     -915.933    -564.216    -495.849
  H     -914.738    -565.447    -495.519
  H     -916.439    -565.840    -495.453

 3  4  5  6  7  8  9  10  11  12  22  25  29  30  31  32 0
 6-311+G(2d,p)
 ****
 33  36  37 0
 6-311+G(2d,p)
 ****
 1  2  13  14  15  16  17  18  19  20  21  23  24  26 0
 3-21G
 ****
 27  28  34  35  38  39  40  41  42  43  44  45  46  47  48 0
 3-21G
 ****


