%nproc=1
%NoSave
%Mem=1900MB
#P OB98/GEN NMR

erre ene a

0 1
  C      -78.847     290.292     517.575
  O      -79.184     290.571     518.937
  P      -80.710     290.815     519.369
  C      -80.617     293.352     519.688
  O      -81.157     292.286     518.907
  C      -81.235     294.722     519.363
  O      -80.972     295.672     520.426
  C      -80.741     295.358     518.054
  O      -81.854     296.092     517.534
  C      -79.652     296.299     518.543
  O      -79.334     297.304     517.596
  C      -80.274     296.793     519.861
  N      -79.271     297.330     520.783
  C      -79.296     298.707     521.008
  O      -80.097     299.425     520.415
  N      -78.379     299.245     521.883
  C      -77.455     298.490     522.395
  N      -76.569     299.087     523.234
  C      -77.337     297.046     522.112
  C      -78.276     296.542     521.315
  O      -81.021     290.490     520.795
  O      -81.545     289.855     518.382
  H      -78.641     297.882     517.984
  H      -82.360     289.566     518.829
  H      -76.541     296.466     522.540
  H      -78.286     295.484     521.043
  H      -81.008     297.585     519.663
  H      -78.734     295.732     518.757
  H      -80.362     294.630     517.329
  H      -82.322     294.585     519.319
  H      -76.665     300.086     523.385
  H      -79.534     293.397     519.517
  H      -75.749     298.625     523.590
  H      -80.759     293.126     520.749
  P      -82.163     296.147     515.966
  C      -80.814     298.214     515.292
  O      -80.886     296.801     515.256
  O      -83.467     296.785     515.609
  O      -82.121     294.616     515.477
  H      -82.573     294.538     514.615
  H      -79.824     298.527     514.975
  H      -80.999     298.597     516.302
  H      -81.552     298.635     514.596
  H      -77.789     290.161     517.489
  H      -79.156     291.108     516.957
  H      -79.344     289.398     517.261

 3  4  5  6  7  8  9  10  11  12  13  23  27  28  29  30  32 0
 6-311+G(2d,p)
 ****
 34  35 0
 6-311+G(2d,p)
 ****
 1  2  14  15  16  17  18  19  20  21  22  24  25  26 0
 3-21G
 ****
 31  33  36  37  38  39  40  41  42  43  44  45  46 0
 3-21G
 ****


