%nproc=1
%NoSave
%Mem=1900MB
#P OB98/GEN NMR

erre ene a

0 1
  C      -44.401    -212.352     302.505
  O      -43.366    -211.687     303.224
  P      -43.792    -210.826     304.511
  C      -43.761    -208.285     303.959
  O      -44.498    -209.502     303.928
  C      -42.822    -208.194     302.761
  O      -43.514    -208.594     301.560
  C      -42.287    -206.795     302.479
  O      -41.176    -206.472     303.303
  C      -41.843    -206.944     301.031
  O      -40.574    -207.615     300.969
  C      -42.942    -207.845     300.450
  N      -43.988    -204.593     296.643
  C      -42.817    -205.096     297.101
  N      -42.620    -205.949     298.134
  C      -43.789    -206.254     298.727
  C      -45.048    -205.784     298.394
  C      -45.131    -204.920     297.286
  N      -46.323    -204.434     296.804
  N      -46.003    -206.309     299.233
  C      -45.335    -207.092     300.057
  N      -43.993    -207.100     299.784
  O      -42.390    -210.288     305.064
  O      -44.561    -211.574     305.546
  H      -40.650    -208.422     301.521
  H      -42.471    -210.071     306.011
  H      -41.921    -204.776     296.570
  H      -45.778    -207.681     300.853
  H      -42.548    -208.572     299.732
  H      -41.716    -205.981     300.525
  H      -43.083    -206.045     302.549
  H      -41.994    -208.897     302.920
  H      -43.164    -208.250     304.879
  H      -46.317    -203.973     295.899
  H      -47.185    -204.840     297.155
  H      -44.457    -207.444     303.963
  P      -40.967    -204.919     303.655
  C      -39.070    -203.917     302.180
  O      -40.447    -204.240     302.307
  O      -39.679    -204.931     304.606
  O      -42.149    -204.278     304.310
  H      -39.682    -204.154     305.194
  H      -38.838    -203.762     301.132
  H      -38.437    -204.726     302.567
  H      -38.859    -202.988     302.728
  H      -43.977    -212.883     301.679
  H      -45.104    -211.631     302.143
  H      -44.900    -213.041     303.154

 3  4  5  6  7  8  9  10  11  12  22  25  29  30  31  32 0
 6-311+G(2d,p)
 ****
 33  36  37 0
 6-311+G(2d,p)
 ****
 1  2  13  14  15  16  17  18  19  20  21  23  24  26 0
 3-21G
 ****
 27  28  34  35  38  39  40  41  42  43  44  45  46  47  48 0
 3-21G
 ****


