%nproc=1
%NoSave
%Mem=1900MB
#P OB98/GEN NMR

erre ene a

0 1
  C      -39.357      11.728     -25.019
  O      -38.749      10.468     -24.818
  H      -40.210      11.818     -24.339
  H      -39.717      11.813     -26.048
  H      -38.647      12.531     -24.802
  P      -37.483      10.130     -25.745
  C      -37.664       8.236     -27.508
  O      -38.078       9.536     -27.113
  C      -38.594       7.180     -26.919
  O      -39.975       7.582     -27.052
  C      -38.477       5.805     -27.566
  O      -37.389       5.073     -27.025
  C      -39.827       5.195     -27.219
  O      -39.842       4.678     -25.872
  C      -40.766       6.403     -27.351
  N      -44.396       4.634     -30.385
  C      -44.091       4.312     -29.078
  N      -44.834       3.333     -28.514
  N      -43.142       4.887     -28.390
  C      -42.463       5.822     -29.095
  C      -42.679       6.242     -30.388
  C      -43.755       5.618     -31.128
  O      -44.117       5.904     -32.264
  N      -41.793       7.226     -30.743
  C      -41.021       7.373     -29.685
  N      -41.377       6.532     -28.664
  O      -36.835       8.845     -25.039
  O      -36.489      11.232     -25.899
  H      -39.811       5.419     -25.244
  H      -35.871       8.851     -25.190
  H      -45.152       4.168     -30.856
  H      -40.198       8.071     -29.609
  H      -41.586       6.367     -26.623
  H      -40.075       4.360     -27.875
  H      -45.326       2.650     -29.074
  H      -38.390       5.896     -28.657
  H      -44.603       3.075     -27.562
  H      -38.379       7.115     -25.843
  H      -36.646       8.062     -27.145
  H      -37.668       8.172     -28.601
  P      -36.792       3.867     -27.902
  C      -37.632       1.612     -26.912
  O      -37.865       2.676     -27.823
  O      -35.580       3.326     -27.006
  O      -36.351       4.252     -29.272
  H      -34.983       2.780     -27.551
  H      -38.431       0.904     -26.979
  H      -37.581       2.000     -25.916
  H      -36.708       1.131     -27.155

 6  7  8  9  10  11  12  13  14  15  26  29  33  34 0
 6-311+G(2d,p)
 ****
 36  38  39  40  41 0
 6-311+G(2d,p)
 ****
 1  2  3  4  5  16  17  18  19  20  21  22  23  24  25 0
 3-21G
 ****
 27  28  30  31  32  35  37  42  43  44  45  46  47 0
 3-21G
 ****
 48  49 0
 3-21G
 ****


