%nproc=1
%NoSave
%Mem=1900MB
#P OB98/GEN NMR

erre ene a

0 1
  C     -415.499     624.283     565.862
  O     -415.458     624.072     567.274
  P     -415.558     622.547     567.757
  C     -414.092     620.579     566.885
  O     -414.119     621.850     567.505
  C     -412.646     620.142     566.607
  O     -411.996     620.978     565.632
  C     -411.757     620.183     567.847
  O     -411.992     619.035     568.646
  C     -410.368     620.220     567.226
  O     -409.909     618.887     566.898
  C     -410.587     621.041     565.949
  N     -407.139     624.482     564.508
  C     -407.143     623.106     564.341
  N     -406.099     622.580     563.672
  N     -408.094     622.329     564.792
  C     -409.075     623.003     565.444
  C     -409.184     624.351     565.653
  C     -408.125     625.199     565.155
  O     -408.077     626.427     565.278
  N     -410.355     624.661     566.298
  C     -410.874     623.486     566.592
  N     -410.176     622.450     566.034
  O     -416.513     621.869     566.669
  O     -416.103     622.386     569.146
  H     -409.897     618.346     567.711
  H     -417.371     621.639     567.070
  H     -406.363     625.029     564.151
  H     -411.786     623.332     567.180
  H     -410.041     620.621     565.098
  H     -409.618     620.633     567.921
  H     -405.330     623.114     563.288
  H     -411.952     621.102     568.415
  H     -406.095     621.572     563.523
  H     -412.679     619.115     566.216
  H     -414.656     620.606     565.946
  H     -414.599     619.856     567.539
  P     -412.893     619.199     569.960
  C     -415.429     619.682     570.290
  O     -414.418     619.037     569.521
  O     -412.755     620.768     570.301
  O     -412.463     618.353     571.126
  H     -412.616     620.873     571.267
  H     -416.282     619.922     569.634
  H     -415.062     620.598     570.749
  H     -415.776     618.986     571.077
  H     -415.425     625.330     565.656
  H     -416.422     623.907     565.472
  H     -414.681     623.770     565.401

 3  4  5  6  7  8  9  10  11  12  23  26  30  31 0
 6-311+G(2d,p)
 ****
 33  35  36  37  38 0
 6-311+G(2d,p)
 ****
 1  2  13  14  15  16  17  18  19  20  21  22  24  25 0
 3-21G
 ****
 27  28  29  32  34  39  40  41  42  43  44  45  46  47  48  49 0
 3-21G
 ****


