%nproc=1
%NoSave
%Mem=1900MB
#P OB98/GEN NMR

erre ene a

0 1
  C     -984.463     389.094    -381.687
  O     -985.616     389.386    -382.474
  P     -985.351     390.137    -383.879
  C     -987.938     390.404    -384.137
  O     -986.659     391.019    -384.157
  C     -989.034     391.479    -384.179
  O     -989.069     392.218    -382.949
  C     -988.840     392.497    -385.299
  O     -989.319     391.991    -386.526
  C     -989.657     393.681    -384.756
  O     -991.070     393.493    -385.017
  C     -989.375     393.606    -383.249
  N     -986.420     394.843    -379.333
  C     -987.555     394.062    -379.369
  N     -987.928     393.483    -378.217
  N     -988.274     393.846    -380.466
  C     -987.769     394.501    -381.535
  C     -986.658     395.310    -381.622
  C     -985.868     395.499    -380.429
  O     -984.799     396.102    -380.360
  N     -986.508     395.828    -382.882
  C     -987.486     395.274    -383.582
  N     -988.277     394.448    -382.817
  O     -985.429     388.950    -384.933
  O     -984.060     390.910    -383.949
  H     -991.559     394.279    -384.720
  H     -984.529     388.652    -385.181
  H     -985.916     394.946    -378.470
  H     -987.647     395.430    -384.634
  H     -990.255     393.886    -382.651
  H     -989.386     394.615    -385.232
  H     -987.467     393.613    -377.331
  H     -987.784     392.793    -385.364
  H     -988.769     392.902    -378.222
  H     -990.011     390.958    -384.291
  H     -988.033     389.837    -383.197
  H     -988.028     389.709    -384.986
  P     -988.223     391.699    -387.672
  C     -989.970     391.811    -389.600
  O     -988.794     392.338    -389.019
  O     -988.360     390.112    -387.909
  O     -986.836     392.072    -387.310
  H     -987.478     389.740    -388.103
  H     -990.479     392.600    -390.151
  H     -990.632     391.394    -388.847
  H     -989.685     391.020    -390.316
  H     -984.762     388.600    -380.786
  H     -983.958     390.005    -381.443
  H     -983.805     388.458    -382.241

 3  4  5  6  7  8  9  10  11  12  23  26  30  31 0
 6-311+G(2d,p)
 ****
 33  35  36  37  38 0
 6-311+G(2d,p)
 ****
 1  2  13  14  15  16  17  18  19  20  21  22  24  25 0
 3-21G
 ****
 27  28  29  32  34  39  40  41  42  43  44  45  46  47  48  49 0
 3-21G
 ****


