%nproc=1
%NoSave
%Mem=1900MB
#P OB98/GEN NMR

erre ene a

0 1
  C      342.980    -199.795     205.537
  O      341.735    -199.806     204.862
  H      343.575    -198.959     205.164
  H      343.517    -200.729     205.346
  H      342.827    -199.668     206.611
  P      340.704    -200.958     205.285
  C      338.649    -199.455     205.849
  O      339.241    -200.384     204.957
  C      337.488    -198.723     205.167
  O      338.036    -197.805     204.171
  C      336.515    -199.654     204.425
  O      335.221    -199.032     204.426
  C      337.086    -199.635     203.015
  O      336.164    -200.166     202.088
  C      337.433    -198.155     202.906
  N      337.781    -196.575     198.053
  C      336.722    -196.712     198.878
  N      336.711    -197.127     200.162
  C      337.958    -197.395     200.587
  C      339.132    -197.294     199.863
  C      339.016    -196.865     198.528
  N      340.088    -196.735     197.685
  N      340.220    -197.664     200.642
  C      339.704    -197.977     201.813
  N      338.341    -197.839     201.826
  O      340.767    -200.944     206.883
  O      340.990    -202.311     204.726
  H      336.433    -199.951     201.169
  H      341.401    -201.616     207.196
  H      335.757    -196.457     198.452
  H      340.264    -198.315     202.680
  H      336.542    -197.533     202.779
  H      337.986    -200.253     202.951
  H      336.443    -200.648     204.867
  H      336.967    -198.107     205.909
  H      339.412    -198.735     206.159
  H      338.276    -199.986     206.734
  H      339.917    -196.437     196.738
  H      341.015    -196.965     198.022
  P      334.114    -199.528     205.482
  C      332.625    -197.412     205.104
  O      332.717    -198.828     205.131
  O      334.551    -198.746     206.811
  O      334.068    -201.003     205.725
  H      334.276    -199.256     207.598
  H      331.625    -197.124     204.853
  H      333.302    -197.025     204.372
  H      332.878    -197.020     206.067

 6  7  8  9  10  11  12  13  14  15  25  28  32  33  34  35 0
 6-311+G(2d,p)
 ****
 36  37  40 0
 6-311+G(2d,p)
 ****
 1  2  3  4  5  16  17  18  19  20  21  22  23  24 0
 3-21G
 ****
 26  27  29  30  31  38  39 41  42  43  44  45  46  47  48 0
 3-21G
 ****


