%nproc=1
%NoSave
%Mem=1900MB
#P OB98/GEN NMR

erre ene a

0 1
  C      -46.513      31.520     -28.150
  O      -46.854      30.219     -27.731
  P      -46.474      28.899     -28.539
  C      -48.898      28.567     -29.459
  O      -47.514      28.721     -29.745
  C      -49.548      27.554     -30.412
  O      -49.497      28.091     -31.759
  C      -48.780      26.223     -30.431
  O      -49.614      25.072     -30.444
  C      -47.820      26.402     -31.599
  O      -47.315      25.180     -32.113
  C      -48.656      27.238     -32.563
  N      -46.812      27.720     -37.271
  C      -47.757      26.834     -36.795
  N      -48.117      25.841     -37.636
  N      -48.268      26.901     -35.593
  C      -47.729      27.877     -34.829
  C      -46.789      28.814     -35.191
  C      -46.257      28.750     -36.531
  O      -45.335      29.444     -36.960
  N      -46.428      29.608     -34.135
  C      -47.122      29.132     -33.122
  N      -47.901      28.058     -33.487
  O      -46.126      27.694     -27.728
  O      -45.137      29.367     -29.316
  H      -47.340      24.524     -31.392
  H      -44.553      28.585     -29.378
  H      -46.395      27.568     -38.183
  H      -47.077      29.501     -32.105
  H      -49.305      26.611     -33.177
  H      -46.959      26.972     -31.233
  H      -47.634      25.679     -38.508
  H      -48.199      26.103     -29.510
  H      -48.608      25.049     -37.231
  H      -50.601      27.429     -30.141
  H      -49.352      29.555     -29.592
  H      -49.044      28.268     -28.418
  P      -49.480      23.729     -29.594
  C      -49.065      22.136     -31.560
  O      -48.528      22.714     -30.387
  O      -50.912      23.026     -29.699
  O      -49.109      23.932     -28.161
  H      -51.144      22.628     -28.838
  H      -48.448      21.280     -31.844
  H      -49.048      22.869     -32.371
  H      -50.091      21.795     -31.392
  H      -46.880      32.231     -27.440
  H      -46.952      31.713     -29.107
  H      -45.449      31.604     -28.222

 3  4  5  6  7  8  9  10  11  12  23  26  30  31 0
 6-311+G(2d,p)
 ****
 33  35  36  37  38 0
 6-311+G(2d,p)
 ****
 1  2  13  14  15  16  17  18  19  20  21  22  24  25 0
 3-21G
 ****
 27  28  29  32  34  39  40  41  42  43  44  45  46  47  48  49 0
 3-21G
 ****


