%nproc=1
%NoSave
%Mem=1900MB
#P OB98/GEN NMR

erre ene a

0 1
  C      -87.446      43.955     -94.302
  O      -87.691      42.797     -95.110
  P      -87.435      42.874     -96.690
  C      -88.727      42.419     -98.868
  O      -88.810      42.558     -97.456
  C      -90.105      42.459     -99.544
  O      -90.898      41.303     -99.165
  C      -90.933      43.711     -99.213
  O      -91.667      44.047    -100.400
  C      -91.861      43.209     -98.131
  O      -92.997      44.045     -97.954
  C      -92.151      41.790     -98.648
  N      -92.687      40.920     -97.616
  C      -94.075      40.864     -97.481
  O      -94.793      41.606     -98.151
  N      -94.613      39.980     -96.575
  C      -93.831      39.329     -95.769
  N      -94.396      38.459     -94.895
  C      -92.364      39.512     -95.753
  C      -91.862      40.290     -96.709
  O      -86.248      42.119     -97.186
  O      -87.251      44.453     -96.939
  H      -93.542      43.694     -97.218
  H      -86.594      44.584     -97.650
  H      -91.754      39.024     -95.006
  H      -90.803      40.473     -96.793
  H      -92.867      41.828     -99.484
  H      -91.324      43.164     -97.175
  H      -90.325      44.574     -98.918
  H      -89.943      42.401    -100.631
  H      -95.409      38.366     -94.891
  H      -88.235      41.471     -99.107
  H      -93.844      37.878     -94.264
  H      -88.067      43.206     -99.262
  P      -91.095      45.182    -101.378
  C      -91.654      47.678    -101.867
  O      -91.792      46.571    -100.996
  O      -91.824      44.824    -102.765
  O      -89.607      45.189    -101.574
  H      -91.282      45.157    -103.506
  H      -92.399      48.430    -101.599
  H      -91.811      47.381    -102.907
  H      -90.653      48.114    -101.763
  H      -87.667      43.730     -93.280
  H      -88.070      44.759     -94.633
  H      -86.419      44.241     -94.390

 3  4  5  6  7  8  9  10  11  12  13  23  27  28  29  30  32 0
 6-311+G(2d,p)
 ****
 34  35 0
 6-311+G(2d,p)
 ****
 1  2  14  15  16  17  18  19  20  21  22  24  25  26 0
 3-21G
 ****
 31  33  36  37  38  39  40  41  42  43  44  45  46 0
 3-21G
 ****


