%nproc=1
%NoSave
%Mem=1900MB
#P OB98/GEN NMR

erre ene a

0 1
  C      645.630     606.048      -5.677
  O      646.512     605.157      -5.033
  H      645.756     607.044      -5.248
  H      644.594     605.725      -5.521
  H      645.837     606.094      -6.751
  P      646.630     603.679      -5.653
  C      648.183     603.156      -3.630
  O      647.111     602.714      -4.455
  C      648.281     602.287      -2.377
  O      647.238     602.635      -1.434
  C      648.136     600.790      -2.634
  O      649.361     600.206      -3.067
  C      647.749     600.293      -1.253
  O      648.914     600.248      -0.409
  C      646.806     601.416      -0.782
  N      642.822     598.366       0.010
  C      644.107     598.292       0.498
  N      644.388     597.240       1.307
  N      645.054     599.148       0.223
  C      644.641     600.141      -0.617
  C      643.381     600.324      -1.167
  C      642.348     599.371      -0.831
  O      641.180     599.402      -1.218
  N      643.338     601.455      -1.942
  C      644.565     601.932      -1.894
  N      645.401     601.166      -1.097
  O      647.930     603.769      -6.586
  O      645.440     603.208      -6.421
  H      648.656     599.770       0.404
  H      647.789     603.218      -7.379
  H      642.137     597.661       0.251
  H      644.912     602.828      -2.395
  H      646.860     601.576       0.295
  H      647.320     599.294      -1.281
  H      643.724     596.505       1.523
  H      647.319     600.585      -3.344
  H      645.315     597.170       1.693
  H      649.241     602.502      -1.891
  H      648.007     604.199      -3.339
  H      649.114     603.108      -4.209
  P      649.284     599.057      -4.206
  C      651.836     598.703      -3.810
  O      650.543     598.099      -3.926
  O      649.699     599.837      -5.530
  O      647.967     598.385      -4.331
  H      649.352     599.370      -6.323
  H      652.568     597.945      -3.625
  H      651.832     599.401      -2.999
  H      652.074     599.215      -4.719

 6  7  8  9  10  11  12  13  14  15  26  29  33  34 0
 6-311+G(2d,p)
 ****
 36  38  39  40  41 0
 6-311+G(2d,p)
 ****
 1  2  3  4  5  16  17  18  19  20  21  22  23  24  25 0
 3-21G
 ****
 27  28  30  31  32  35  37  42  43  44  45  46  47 0
 3-21G
 ****
 48  49 0
 3-21G
 ****


