%nproc=1
%NoSave
%Mem=1900MB
#P OB98/GEN NMR

erre ene a

0 1
  C       48.127     -20.336     107.571
  O       47.186     -21.382     107.811
  P       45.622     -21.061     107.671
  C       43.737     -20.346     109.273
  O       45.136     -20.331     109.014
  C       43.458     -20.113     110.760
  O       43.841     -21.251     111.557
  C       44.228     -18.938     111.337
  O       43.667     -17.707     110.917
  C       44.128     -19.220     112.830
  O       42.874     -18.761     113.358
  C       44.187     -20.764     112.872
  N       45.475     -21.278     113.311
  C       45.895     -20.879     114.584
  O       45.208     -20.104     115.249
  N       47.091     -21.356     115.062
  C       47.805     -22.154     114.330
  N       48.978     -22.598     114.856
  C       47.404     -22.590     112.978
  C       46.244     -22.112     112.533
  O       44.767     -22.198     107.218
  O       45.602     -19.864     106.600
  H       42.187     -19.321     112.944
  H       44.766     -19.906     106.096
  H       48.032     -23.260     112.410
  H       45.875     -22.378     111.549
  H       43.422     -21.154     113.557
  H       44.919     -18.717     113.393
  H       45.278     -18.993     111.022
  H       42.379     -19.949     110.883
  H       49.235     -22.276     115.780
  H       43.318     -21.307     108.962
  H       49.578     -23.260     114.386
  H       43.256     -19.578     108.657
  P       44.561     -16.765     109.977
  C       46.573     -15.167     110.317
  O       45.540     -15.921     110.920
  O       43.508     -15.671     109.462
  O       45.216     -17.464     108.830
  H       43.735     -15.400     108.555
  H       46.931     -14.426     111.038
  H       46.218     -14.646     109.424
  H       47.402     -15.828     110.050
  H       49.120     -20.712     107.705
  H       47.953     -19.535     108.259
  H       48.014     -19.977     106.569

 3  4  5  6  7  8  9  10  11  12  13  23  27  28  29  30  32 0
 6-311+G(2d,p)
 ****
 34  35 0
 6-311+G(2d,p)
 ****
 1  2  14  15  16  17  18  19  20  21  22  24  25  26 0
 3-21G
 ****
 31  33  36  37  38  39  40  41  42  43  44  45  46 0
 3-21G
 ****


