%nproc=1
%NoSave
%Mem=1900MB
#P OB98/GEN NMR

erre ene a

0 1
  C      -78.601    -148.235     -49.727
  O      -79.576    -148.990     -49.039
  H      -78.359    -147.348     -49.132
  H      -78.989    -147.908     -50.698
  H      -77.687    -148.818     -49.869
  P      -80.013    -150.416     -49.633
  C      -81.687    -151.256     -51.402
  O      -81.041    -150.125     -50.829
  C      -82.271    -150.884     -52.766
  O      -81.311    -150.116     -53.528
  C      -82.627    -152.086     -53.636
  O      -83.818    -152.699     -53.189
  C      -82.706    -151.429     -55.005
  O      -83.960    -150.745     -55.177
  C      -81.541    -150.413     -54.926
  N      -80.319    -150.904     -55.566
  C      -80.323    -150.933     -56.958
  O      -81.288    -150.579     -57.638
  N      -79.191    -151.434     -57.548
  C      -78.121    -151.976     -56.893
  O      -77.233    -152.609     -57.460
  C      -78.138    -151.845     -55.428
  C      -79.225    -151.340     -54.841
  O      -80.473    -151.423     -48.633
  O      -78.697    -150.917     -50.407
  H      -78.227    -151.572     -49.852
  H      -83.893    -150.258     -56.023
  H      -79.204    -151.507     -58.555
  H      -77.278    -152.206     -54.873
  H      -79.271    -151.259     -53.759
  H      -81.823    -149.470     -55.409
  H      -82.623    -152.150     -55.819
  H      -81.798    -152.809     -53.636
  H      -83.153    -150.252     -52.596
  H      -82.497    -151.574     -50.734
  H      -80.966    -152.073     -51.500
  P      -84.109    -154.253     -53.446
  C      -84.903    -155.734     -55.381
  O      -84.412    -154.450     -55.008
  O      -85.118    -154.870     -52.533
  O      -82.670    -154.949     -53.265
  H      -82.753    -155.679     -52.620
  H      -85.071    -155.758     -56.437
  H      -85.823    -155.927     -54.869
  H      -84.184    -156.481     -55.117

 6  7  8  9  10  11  12  13  14  15  16  27  31  32  33  34  35 0
 6-311+G(2d,p)
 ****
 36  37 0
 6-311+G(2d,p)
 ****
 1  2  3  4  5  17  18  19  20  21  22  23  24  25 0
 3-21G
 ****
 26  28  29  30  38  39  40  41  42  43  44  45 0
 3-21G
 ****


