%nproc=1
%NoSave
%Mem=1900MB
#P OB98/GEN NMR

erre ene a

0 1
  C       69.393      73.671     -82.911
  O       70.017      74.692     -82.154
  P       71.262      74.362     -81.207
  C       73.653      73.502     -81.524
  O       72.354      73.588     -82.095
  C       74.350      72.201     -81.922
  O       73.778      71.104     -81.158
  C       74.227      71.836     -83.408
  O       75.444      71.179     -83.774
  C       73.085      70.832     -83.412
  O       73.080      70.004     -84.569
  C       73.364      70.098     -82.106
  N       71.538      65.590     -80.535
  C       72.740      65.948     -81.032
  N       73.141      67.165     -81.452
  C       72.153      68.064     -81.317
  C       70.867      67.841     -80.855
  C       70.571      66.532     -80.432
  N       69.361      66.158     -79.890
  N       70.123      69.004     -80.920
  C       70.947      69.908     -81.410
  N       72.202      69.400     -81.604
  O       70.922      73.692     -79.917
  O       71.944      75.787     -80.955
  H       73.786      69.337     -84.473
  H       71.753      76.090     -80.045
  H       73.480      65.155     -81.096
  H       70.689      70.931     -81.643
  H       74.179      69.371     -82.206
  H       72.128      71.366     -83.373
  H       74.037      72.691     -84.062
  H       75.406      72.277     -81.634
  H       73.548      73.536     -80.436
  H       69.302      65.231     -79.499
  H       68.726      66.881     -79.558
  H       74.255      74.363     -81.839
  P       76.016      71.327     -85.264
  C       76.785      73.276     -86.732
  O       76.051      72.895     -85.583
  O       75.349      70.477     -86.293
  O       77.570      70.956     -85.106
  H       77.944      70.744     -85.982
  H       77.850      73.310     -86.489
  H       76.459      74.272     -87.047
  H       76.624      72.573     -87.555
  H       68.586      74.089     -83.476
  H       69.014      72.919     -82.251
  H       70.107      73.234     -83.578

 3  4  5  6  7  8  9  10  11  12  22  25  29  30  31  32 0
 6-311+G(2d,p)
 ****
 33  36  37 0
 6-311+G(2d,p)
 ****
 1  2  13  14  15  16  17  18  19  20  21  23  24  26 0
 3-21G
 ****
 27  28  34  35  38  39  40  41  42  43  44  45  46  47  48 0
 3-21G
 ****


