%nproc=1
%NoSave
%Mem=1900MB
#P OB98/GEN NMR

erre ene a

0 1
  C      262.028     189.136     163.756
  O      261.163     190.206     164.064
  H      261.725     188.265     164.346
  H      263.058     189.387     164.023
  H      261.965     188.881     162.696
  P      261.403     191.635     163.370
  C      261.016     192.669     165.689
  O      260.646     192.698     164.317
  C      259.785     192.747     166.592
  O      259.041     191.499     166.510
  C      260.117     192.989     168.072
  O      259.276     194.020     168.596
  C      259.774     191.665     168.739
  O      259.475     191.798     170.125
  C      258.618     191.188     167.849
  N      258.339     189.769     168.031
  C      257.232     189.455     168.825
  O      256.551     190.352     169.322
  N      256.954     188.135     169.082
  C      257.745     187.212     168.627
  N      257.429     185.928     168.941
  C      258.939     187.502     167.806
  C      259.176     188.789     167.546
  O      261.032     191.697     161.927
  O      262.946     191.965     163.637
  H      258.738     192.442     170.224
  H      263.254     192.620     162.967
  H      259.568     186.696     167.454
  H      260.029     189.099     166.953
  H      257.701     191.755     168.060
  H      260.626     190.979     168.641
  H      261.159     193.262     168.241
  H      259.117     193.527     166.203
  H      256.605     185.778     169.512
  H      261.691     193.507     165.889
  H      257.981     185.131     168.666
  H      261.543     191.729     165.884
  P      260.009     195.175     169.437
  C      257.950     195.695     170.932
  O      258.883     196.184     169.976
  O      260.779     196.017     168.316
  O      260.947     194.651     170.473
  H      261.741     195.876     168.398
  H      257.266     196.475     171.195
  H      258.473     195.370     171.807
  H      257.409     194.872     170.514

 6  7  8  9  10  11  12  13  14  15  16  26  30  31  32  33  35 0
 6-311+G(2d,p)
 ****
 37  38 0
 6-311+G(2d,p)
 ****
 1  2  3  4  5  17  18  19  20  21  22  23  24  25 0
 3-21G
 ****
 27  28  29  34  36  39  40  41  42  43  44  45  46 0
 3-21G
 ****


