%nproc=1
%NoSave
%Mem=1900MB
#P OB98/GEN NMR

erre ene a

0 1
  C      219.777     -17.248       7.249
  O      218.901     -18.342       7.448
  P      218.078     -18.963       6.226
  C      216.079     -17.604       7.076
  O      216.835     -17.987       5.934
  C      215.305     -16.311       6.822
  O      216.221     -15.303       6.310
  C      214.157     -16.440       5.814
  O      213.127     -15.542       6.242
  C      214.780     -15.924       4.526
  O      213.812     -15.503       3.573
  C      215.653     -14.804       5.080
  N      216.732     -12.651       0.570
  C      215.558     -12.932       1.174
  N      215.352     -13.532       2.365
  C      216.522     -13.844       2.946
  C      217.797     -13.647       2.439
  C      217.883     -12.999       1.194
  N      219.072     -12.673       0.581
  N      218.745     -14.158       3.307
  C      218.052     -14.651       4.314
  N      216.712     -14.427       4.170
  O      217.716     -20.405       6.367
  O      219.028     -18.726       4.958
  H      214.280     -15.215       2.767
  H      219.433     -19.575       4.687
  H      214.665     -12.633       0.633
  H      218.467     -15.176       5.164
  H      215.073     -13.904       5.316
  H      215.385     -16.715       4.068
  H      213.765     -17.457       5.712
  H      214.929     -15.945       7.786
  H      216.776     -17.451       7.906
  H      219.018     -12.094      -0.244
  H      219.926     -12.679       1.133
  H      215.389     -18.410       7.350
  P      211.594     -16.007       6.208
  C      211.033     -14.612       4.136
  O      211.124     -15.917       4.680
  O      210.701     -15.332       7.196
  O      211.679     -17.588       6.470
  H      210.800     -17.919       6.744
  H      210.089     -14.157       4.447
  H      211.054     -14.682       3.045
  H      211.864     -13.987       4.469
  H      220.231     -16.980       8.180
  H      219.225     -16.414       6.868
  H      220.537     -17.523       6.548

 3  4  5  6  7  8  9  10  11  12  22  25  29  30  31  32 0
 6-311+G(2d,p)
 ****
 33  36  37 0
 6-311+G(2d,p)
 ****
 1  2  13  14  15  16  17  18  19  20  21  23  24  26 0
 3-21G
 ****
 27  28  34  35  38  39  40  41  42  43  44  45  46  47  48 0
 3-21G
 ****


