%nproc=1
%NoSave
%Mem=1900MB
#P OB98/GEN NMR

erre ene a

0 1
  C     -834.311     734.965       4.269
  O     -835.281     734.869       5.295
  H     -833.759     735.896       4.394
  H     -834.792     734.965       3.287
  H     -833.609     734.128       4.343
  P     -836.229     733.576       5.272
  C     -838.230     735.009       4.447
  O     -837.351     733.926       4.170
  C     -839.670     734.633       4.098
  O     -839.719     733.999       2.805
  C     -840.318     733.660       5.068
  O     -840.841     734.353       6.193
  C     -841.433     733.086       4.206
  O     -842.545     734.003       4.187
  C     -840.782     733.023       2.816
  N     -841.814     728.418       0.796
  C     -842.629     729.421       1.194
  N     -842.289     730.588       1.774
  C     -840.951     730.689       1.915
  C     -840.002     729.742       1.562
  C     -840.476     728.558       0.970
  N     -839.651     727.539       0.559
  N     -838.734     730.178       1.867
  C     -838.909     731.395       2.342
  N     -840.236     731.733       2.434
  O     -836.729     733.117       6.600
  O     -835.300     732.532       4.493
  H     -842.807     734.149       5.117
  H     -834.834     732.969       3.759
  H     -843.687     729.261       1.030
  H     -838.116     732.069       2.627
  H     -841.490     733.307       2.022
  H     -841.811     732.133       4.580
  H     -839.637     732.848       5.362
  H     -840.246     735.565       4.027
  H     -837.926     735.895       3.877
  H     -840.089     726.658       0.329
  H     -838.675     727.591       0.811
  H     -838.147     735.238       5.513
  P     -840.541     733.850       7.691
  C     -842.533     732.249       7.931
  O     -841.125     732.355       7.746
  O     -841.017     734.781       8.756
  O     -838.960     733.618       7.718
  H     -838.649     733.568       8.652
  H     -842.813     731.217       7.953
  H     -843.037     732.738       7.124
  H     -842.807     732.712       8.856

 6  7  8  9  10  11  12  13  14  15  25  28  32  33  34  35 0
 6-311+G(2d,p)
 ****
 36  39  40 0
 6-311+G(2d,p)
 ****
 1  2  3  4  5  16  17  18  19  20  21  22  23  24 0
 3-21G
 ****
 26  27  29  30  31  37  38  41  42  43  44  45  46  47 0
 3-21G
 ****
 48 0
 3-21G
 ****


