%nproc=1
%NoSave
%Mem=1900MB
#P OB98/GEN NMR

erre ene a

0 1
  C     -136.325    -100.738      65.373
  O     -135.867     -99.861      66.407
  P     -134.373     -99.286      66.278
  C     -133.613     -99.190      68.784
  O     -134.098     -98.493      67.643
  C     -133.694     -98.294      70.017
  O     -133.175     -96.973      69.723
  C     -135.107     -98.066      70.532
  O     -135.604     -99.214      71.205
  C     -134.901     -96.844      71.414
  O     -134.368     -97.232      72.689
  C     -133.841     -96.050      70.619
  N     -134.399     -94.916      69.897
  C     -134.301     -93.684      70.535
  O     -133.803     -93.542      71.652
  N     -134.819     -92.615      69.855
  C     -135.437     -92.662      68.640
  O     -135.872     -91.667      68.074
  C     -135.553     -93.998      68.036
  C     -135.038     -95.048      68.681
  O     -134.577     -98.138      65.185
  O     -133.376    -100.335      65.919
  H     -135.438     -97.691      65.260
  H     -134.600     -96.518      73.316
  H     -134.747     -91.710      70.297
  H     -136.061     -94.076      67.083
  H     -135.119     -96.042      68.252
  H     -133.066     -95.674      71.297
  H     -135.833     -96.300      71.600
  H     -135.771     -97.814      69.695
  H     -133.071     -98.739      70.805
  H     -132.571     -99.487      68.623
  H     -134.200    -100.103      68.918
  P     -136.893     -99.928      70.564
  C     -137.761    -100.406      72.984
  O     -137.477    -100.901      71.695
  O     -136.209    -100.921      69.512
  O     -137.874     -98.973      69.968
  H     -135.437    -101.384      69.874
  H     -138.452    -101.092      73.482
  H     -138.224     -99.417      72.940
  H     -136.838    -100.353      73.570
  H     -137.329    -101.044      65.583
  H     -135.692    -101.599      65.329
  H     -136.297    -100.227      64.433

 3  4  5  6  7  8  9  10  11  12  13  24  28  29  30  31  32 0
 6-311+G(2d,p)
 ****
 33  34 0
 6-311+G(2d,p)
 ****
 1  2  14  15  16  17  18  19  20  21  22  23  25  26  27 0
 3-21G
 ****
 35  36  37  38  39  40  41  42  43  44  45 0
 3-21G
 ****


