%nproc=1
%NoSave
%Mem=1900MB
#P OB98/GEN NMR

erre ene a

0 1
  C       13.892     496.841     615.534
  O       14.069     497.257     616.874
  H       14.126     497.681     614.874
  H       12.853     496.536     615.363
  H       14.566     496.013     615.308
  P       13.740     496.175     618.011
  C       16.161     495.960     618.865
  O       14.849     496.436     619.144
  C       17.184     496.645     619.779
  O       17.496     497.950     619.232
  C       16.676     496.849     621.211
  O       17.754     496.633     622.129
  C       16.268     498.315     621.243
  O       16.315     498.865     622.553
  C       17.268     498.931     620.259
  N       18.220     503.899     619.546
  C       18.972     502.897     620.047
  N       18.644     501.594     620.187
  C       17.411     501.356     619.704
  C       16.528     502.279     619.169
  C       16.976     503.608     619.108
  N       16.197     504.642     618.623
  N       15.341     501.656     618.822
  C       15.513     500.384     619.133
  N       16.748     500.156     619.682
  O       13.621     494.762     617.548
  O       12.420     496.790     618.677
  H       16.227     499.840     622.479
  H       12.504     497.753     618.810
  H       19.969     503.178     620.386
  H       14.778     499.596     618.984
  H       18.222     499.173     620.736
  H       15.241     498.412     620.865
  H       15.840     496.188     621.457
  H       18.113     496.062     619.766
  H       16.423     496.162     617.819
  H       16.597     505.563     618.595
  H       15.277     504.440     618.271
  H       16.174     494.880     619.026
  P       17.436     496.694     623.700
  C       18.273     494.327     624.312
  O       18.475     495.730     624.465
  O       16.004     496.534     624.086
  O       17.976     498.155     624.101
  H       17.377     498.536     624.771
  H       19.021     493.797     624.863
  H       18.342     494.068     623.276
  H       17.304     494.064     624.682

 6  7  8  9  10  11  12  13  14  15  25  28  32  33  34  35 0
 6-311+G(2d,p)
 ****
 36  39  40 0
 6-311+G(2d,p)
 ****
 1  2  3  4  5  16  17  18  19  20  21  22  23  24 0
 3-21G
 ****
 26  27  29  30  31  37  38  41  42  43  44  45  46  47 0
 3-21G
 ****
 48 0
 3-21G
 ****


