%nproc=1
%NoSave
%Mem=1900MB
#P OB98/GEN NMR

erre ene a

0 1
  C       29.981     211.009      61.766
  O       30.295     210.980      63.144
  P       29.397     210.062      64.114
  C       31.368     208.474      64.840
  O       30.125     208.631      64.185
  C       31.199     207.662      66.126
  O       30.754     206.317      65.780
  C       32.479     207.516      66.966
  O       32.083     207.521      68.348
  C       33.001     206.148      66.558
  O       33.873     205.586      67.533
  C       31.678     205.386      66.383
  N       31.813     204.190      65.551
  C       31.694     202.946      66.175
  O       31.507     202.799      67.378
  N       31.829     201.851      65.352
  C       32.129     201.878      64.021
  O       32.258     200.867      63.335
  C       32.291     203.214      63.427
  C       32.120     204.288      64.201
  O       28.115     209.804      63.197
  O       29.115     210.682      65.440
  H       28.332     209.718      62.249
  H       33.349     205.413      68.338
  H       31.709     200.942      65.772
  H       32.544     203.273      62.374
  H       32.231     205.282      63.786
  H       31.263     205.109      67.359
  H       33.542     206.236      65.616
  H       33.184     208.331      66.781
  H       30.397     208.121      66.723
  H       31.767     209.463      65.099
  H       32.081     207.988      64.164
  P       33.166     207.964      69.452
  C       33.405     210.499      68.848
  O       33.972     209.211      68.855
  O       34.217     206.757      69.310
  O       32.636     208.101      70.840
  H       34.462     206.573      68.389
  H       34.201     211.242      68.729
  H       32.873     210.711      69.782
  H       32.708     210.590      68.008
  H       30.663     211.659      61.258
  H       28.981     211.368      61.635
  H       30.061     210.022      61.361

 3  4  5  6  7  8  9  10  11  12  13  24  28  29  30  31  32 0
 6-311+G(2d,p)
 ****
 33  34 0
 6-311+G(2d,p)
 ****
 1  2  14  15  16  17  18  19  20  21  22  23  25  26  27 0
 3-21G
 ****
 35  36  37  38  39  40  41  42  43  44  45 0
 3-21G
 ****


