%nproc=1
%NoSave
%Mem=1900MB
#P OB98/GEN NMR

erre ene a

0 1
  C      184.968      59.260      32.085
  O      183.809      58.466      32.229
  H      184.670      60.264      31.777
  H      185.619      58.836      31.315
  H      185.511      59.331      33.032
  P      183.946      57.002      32.870
  C      184.720      56.069      35.148
  O      184.742      57.173      34.251
  C      185.995      56.054      35.988
  O      187.150      55.890      35.135
  C      186.238      57.338      36.773
  O      185.395      57.403      37.906
  C      187.721      57.203      37.082
  O      187.933      56.323      38.199
  C      188.255      56.570      35.773
  N      188.859      57.548      34.868
  C      190.237      57.722      34.977
  O      190.925      57.131      35.809
  N      190.797      58.618      34.104
  C      190.117      59.400      33.216
  O      190.662      60.233      32.491
  C      188.662      59.199      33.168
  C      188.108      58.297      33.982
  O      184.482      55.945      31.962
  O      182.457      56.663      33.356
  H      188.881      56.372      38.418
  H      182.028      56.076      32.708
  H      191.790      58.769      34.178
  H      188.089      59.807      32.477
  H      187.036      58.137      33.965
  H      189.006      55.805      36.001
  H      188.187      58.155      37.339
  H      186.092      58.211      36.125
  H      185.950      55.188      36.662
  H      184.656      55.142      34.565
  H      183.836      56.148      35.788
  P      185.165      58.785      38.678
  C      184.438      61.158      38.032
  O      185.005      59.939      37.568
  O      186.158      59.088      39.750
  O      183.690      58.655      39.279
  H      183.737      58.504      40.246
  H      184.376      61.854      37.221
  H      185.054      61.566      38.806
  H      183.458      60.971      38.418

 6  7  8  9  10  11  12  13  14  15  16  26  31  32  33  34  35 0
 6-311+G(2d,p)
 ****
 36  37 0
 6-311+G(2d,p)
 ****
 1  2  3  4  5  17  18  19  20  21  22  23  24  25 0
 3-21G
 ****
 27  28  29  30  38  39  40  41  42  43  44  45 0
 3-21G
 ****


