%nproc=1
%NoSave
%Mem=1900MB
#P OB98/GEN NMR

erre ene a

0 1
  C       -4.597     294.932    -258.124
  O       -5.994     294.873    -257.898
  P       -6.581     294.208    -256.568
  C       -8.315     296.038    -256.132
  O       -8.114     294.665    -256.433
  C       -9.789     296.427    -256.258
  O      -10.202     296.283    -257.648
  C      -10.748     295.585    -255.407
  O      -11.810     296.452    -254.998
  C      -11.278     294.566    -256.405
  O      -12.506     293.979    -255.997
  C      -11.372     295.439    -257.655
  N      -13.745     291.652    -260.142
  C      -13.917     292.162    -258.904
  N      -13.230     293.152    -258.303
  C      -12.274     293.630    -259.120
  C      -11.958     293.192    -260.397
  C      -12.760     292.162    -260.923
  N      -12.620     291.655    -262.195
  N      -10.875     293.896    -260.893
  C      -10.550     294.738    -259.933
  N      -11.405     294.655    -258.871
  O       -5.760     294.411    -255.337
  O       -6.696     292.655    -256.933
  H      -12.752     293.295    -256.644
  H       -5.990     292.154    -256.479
  H      -14.718     291.718    -258.318
  H       -9.708     295.420    -259.957
  H      -12.258     296.081    -257.642
  H      -10.543     293.762    -256.533
  H      -10.276     295.114    -254.539
  H       -9.886     297.490    -256.005
  H       -7.728     296.630    -256.843
  H      -13.329     291.013    -262.514
  H      -12.085     292.187    -262.880
  H       -7.953     296.258    -255.119
  P      -11.876     296.977    -253.483
  C      -11.508     299.428    -254.118
  O      -12.401     298.488    -253.549
  O      -10.640     296.759    -252.678
  O      -13.129     296.184    -252.868
  H      -13.088     296.215    -251.893
  H      -10.765     299.724    -253.374
  H      -12.073     300.312    -254.429
  H      -10.997     299.008    -254.989
  H       -4.407     295.410    -259.062
  H       -4.196     293.940    -258.142
  H       -4.132     295.490    -257.339

 3  4  5  6  7  8  9  10  11  12  22  25  29  30  31  32 0
 6-311+G(2d,p)
 ****
 33  36  37 0
 6-311+G(2d,p)
 ****
 1  2  13  14  15  16  17  18  19  20  21  23  24  26 0
 3-21G
 ****
 27  28  34  35  38  39  40  41  42  43  44  45  46  47  48 0
 3-21G
 ****


