%nproc=1
%NoSave
%Mem=1900MB
#P OB98/GEN NMR

erre ene a

0 1
  C      550.363     -91.399      21.232
  O      549.543     -90.978      20.160
  H      549.890     -91.105      22.174
  H      551.342     -90.917      21.168
  H      550.482     -92.486      21.218
  P      549.967     -91.461      18.694
  C      551.784     -90.726      16.948
  O      551.234     -90.578      18.255
  C      552.154     -89.354      16.377
  O      553.267     -88.775      17.093
  C      552.633     -89.395      14.934
  O      551.590     -89.662      14.023
  C      553.227     -88.001      14.809
  O      552.204     -87.018      14.606
  C      553.890     -87.822      16.198
  N      555.335     -87.991      16.152
  C      556.066     -86.870      15.727
  O      555.488     -85.824      15.436
  N      557.436     -86.980      15.625
  C      558.021     -88.090      15.934
  N      559.373     -88.137      15.802
  C      557.291     -89.287      16.409
  C      555.968     -89.170      16.485
  O      548.791     -90.874      17.778
  O      550.188     -92.930      18.541
  H      552.622     -86.145      14.753
  H      548.644     -89.916      17.900
  H      557.827     -90.193      16.668
  H      555.352     -89.998      16.822
  H      553.677     -86.820      16.601
  H      553.909     -87.924      13.964
  H      553.451     -90.118      14.831
  H      551.285     -88.693      16.500
  H      559.838     -87.305      15.456
  H      551.084     -91.244      16.283
  H      559.931     -88.961      15.982
  H      552.677     -91.353      17.035
  P      551.895     -89.754      12.451
  C      553.261     -88.372      10.760
  O      552.690     -88.416      12.070
  O      550.704     -90.024      11.590
  O      553.035     -90.872      12.355
  H      553.852     -90.664      12.844
  H      553.763     -87.437      10.621
  H      552.486     -88.473      10.029
  H      553.962     -89.173      10.649

 6  7  8  9  10  11  12  13  14  15  16  26  30  31  32  33  35 0
 6-311+G(2d,p)
 ****
 37  38 0
 6-311+G(2d,p)
 ****
 1  2  3  4  5  17  18  19  20  21  22  23  24  25 0
 3-21G
 ****
 27  28  29  34  36  39  40  41  42  43  44  45  46 0
 3-21G
 ****


