%nproc=1
%NoSave
%Mem=1900MB
#P OB98/GEN NMR

erre ene a

0 1
  C     -187.347     150.704    -852.042
  O     -188.052     151.035    -850.843
  P     -188.327     152.598    -850.546
  C     -187.979     152.569    -847.957
  O     -188.882     152.739    -849.040
  C     -188.738     152.444    -846.638
  O     -189.645     153.563    -846.420
  C     -189.626     151.199    -846.546
  O     -188.859     150.058    -846.182
  C     -190.573     151.593    -845.436
  O     -189.932     151.400    -844.159
  C     -190.798     153.090    -845.692
  N     -195.747     154.390    -845.429
  C     -194.807     154.155    -844.468
  N     -193.525     153.791    -844.625
  C     -193.204     153.711    -845.919
  C     -194.051     153.923    -847.003
  C     -195.368     154.281    -846.722
  N     -196.296     154.544    -847.715
  N     -193.365     153.725    -848.187
  C     -192.126     153.409    -847.827
  N     -191.992     153.374    -846.464
  O     -189.617     152.913    -851.450
  O     -187.188     153.498    -850.886
  H     -190.486     151.829    -843.480
  H     -189.565     153.821    -851.781
  H     -195.163     154.261    -843.422
  H     -191.317     153.198    -848.505
  H     -190.854     153.655    -844.762
  H     -191.484     150.997    -845.418
  H     -190.168     151.048    -847.487
  H     -187.995     152.443    -845.814
  H     -187.286     153.419    -847.914
  H     -197.235     154.817    -847.409
  H     -196.025     154.475    -848.675
  H     -187.364     151.684    -848.139
  P     -188.004     149.352    -847.342
  C     -188.296     146.879    -846.569
  O     -187.434     147.999    -846.707
  O     -186.706     150.303    -847.463
  O     -188.704     149.210    -848.658
  H     -186.367     150.288    -848.380
  H     -187.684     145.985    -846.416
  H     -188.906     146.750    -847.477
  H     -188.951     147.027    -845.715
  H     -187.237     149.642    -852.109
  H     -186.380     151.163    -852.026
  H     -187.896     151.060    -852.889

 3  4  5  6  7  8  9  10  11  12  22  25  29  30  31  32 0
 6-311+G(2d,p)
 ****
 33  36  37 0
 6-311+G(2d,p)
 ****
 1  2  13  14  15  16  17  18  19  20  21  23  24  26 0
 3-21G
 ****
 27  28  34  35  38  39  40  41  42  43  44  45  46  47  48 0
 3-21G
 ****


