%nproc=1
%NoSave
%Mem=1900MB
#P OB98/GEN NMR

erre ene a

0 1
  C       55.718    -266.041     -49.372
  O       57.072    -265.728     -49.130
  H       55.136    -265.116     -49.347
  H       55.346    -266.710     -48.591
  H       55.588    -266.509     -50.350
  P       58.186    -266.838     -49.426
  C       59.206    -265.399     -51.311
  O       59.438    -266.086     -50.090
  C       60.040    -264.113     -51.378
  O       59.475    -263.137     -50.466
  C       61.484    -264.357     -50.929
  O       62.398    -263.452     -51.541
  C       61.426    -264.067     -49.438
  O       62.696    -263.725     -48.884
  C       60.406    -262.932     -49.391
  N       60.182    -260.849     -44.744
  C       61.203    -260.806     -45.672
  N       62.310    -260.113     -45.313
  N       61.154    -261.405     -46.832
  C       60.019    -262.120     -47.025
  C       58.948    -262.256     -46.172
  C       58.999    -261.560     -44.905
  O       58.131    -261.584     -44.037
  N       57.982    -263.069     -46.711
  C       58.468    -263.427     -47.883
  N       59.691    -262.854     -48.130
  O       57.582    -267.658     -50.663
  O       58.520    -267.741     -48.279
  H       63.258    -264.521     -48.930
  H       57.981    -268.545     -50.709
  H       60.257    -260.346     -43.878
  H       57.972    -264.078     -48.591
  H       60.896    -261.965     -49.552
  H       61.083    -264.970     -48.927
  H       62.461    -259.810     -44.364
  H       61.817    -265.376     -51.116
  H       63.166    -260.328     -45.830
  H       59.982    -263.680     -52.382
  H       58.139    -265.166     -51.349
  H       59.428    -266.047     -52.160
  P       63.797    -264.018     -52.078
  C       62.672    -265.369     -54.057
  O       63.653    -264.462     -53.604
  O       63.973    -265.399     -51.294
  O       64.958    -263.099     -51.861
  H       64.745    -265.356     -50.700
  H       62.775    -265.508     -55.113
  H       61.699    -264.979     -53.842
  H       62.797    -266.308     -53.559

 6  7  8  9  10  11  12  13  14  15  26  29  33  34 0
 6-311+G(2d,p)
 ****
 36  38  39  40  41 0
 6-311+G(2d,p)
 ****
 1  2  3  4  5  16  17  18  19  20  21  22  23  24  25 0
 3-21G
 ****
 27  28  30  31  32  35  37  42  43  44  45  46  47 0
 3-21G
 ****
 48  49 0
 3-21G
 ****


