%nproc=1
%NoSave
%Mem=1900MB
#P OB98/GEN NMR

erre ene a

0 1
  C      120.309     -40.147      36.142
  O      119.546     -40.923      37.056
  P      117.962     -41.030      36.823
  C      117.381     -39.248      38.616
  O      117.331     -39.613      37.244
  C      116.819     -37.844      38.834
  O      117.541     -36.909      37.990
  C      115.330     -37.697      38.504
  O      114.789     -36.723      39.404
  C      115.346     -37.119      37.100
  O      114.124     -36.466      36.771
  C      116.563     -36.202      37.197
  N      116.927     -32.615      33.574
  C      116.324     -32.613      34.781
  N      116.272     -33.607      35.691
  C      116.927     -34.693      35.246
  C      117.558     -34.853      34.024
  C      117.549     -33.745      33.160
  N      118.171     -33.739      31.934
  N      118.096     -36.120      33.919
  C      117.794     -36.713      35.055
  N      117.110     -35.883      35.897
  O      117.501     -42.010      38.001
  O      117.548     -41.547      35.489
  H      114.208     -36.097      35.871
  H      117.206     -42.863      37.627
  H      115.824     -31.688      35.056
  H      118.043     -37.733      35.313
  H      116.330     -35.260      37.708
  H      115.509     -37.921      36.372
  H      114.762     -38.631      38.569
  H      117.010     -37.555      39.875
  H      118.424     -39.262      38.944
  H      118.237     -32.867      31.436
  H      118.794     -34.505      31.700
  H      116.821     -39.978      39.209
  P      113.255     -36.903      39.833
  C      112.579     -35.503      37.757
  O      112.378     -36.681      38.513
  O      112.961     -35.595      40.711
  O      112.979     -38.154      40.600
  H      112.259     -35.781      41.361
  H      112.417     -35.729      36.700
  H      113.592     -35.106      37.882
  H      111.857     -34.745      38.074
  H      121.340     -40.172      36.427
  H      119.960     -39.136      36.154
  H      120.202     -40.549      35.156

 3  4  5  6  7  8  9  10  11  12  22  25  29  30  31  32 0
 6-311+G(2d,p)
 ****
 33  36  37 0
 6-311+G(2d,p)
 ****
 1  2  13  14  15  16  17  18  19  20  21  23  24  26 0
 3-21G
 ****
 27  28  34  35  38  39  40  41  42  43  44  45  46  47  48 0
 3-21G
 ****


