%nproc=1
%NoSave
%Mem=1900MB
#P OB98/GEN NMR

erre ene a

0 1
  C       68.147    -556.145      -8.525
  O       68.355    -556.466      -9.886
  H       69.082    -555.764      -8.109
  H       67.856    -557.042      -7.968
  H       67.379    -555.372      -8.416
  P       67.084    -556.739     -10.817
  C       67.365    -554.792     -12.489
  O       67.452    -556.195     -12.282
  C       67.822    -554.421     -13.905
  O       69.169    -554.926     -14.115
  C       66.929    -555.071     -14.969
  O       66.886    -554.309     -16.177
  C       67.639    -556.386     -15.245
  O       67.331    -556.936     -16.522
  C       69.105    -555.977     -15.099
  N       72.731    -559.277     -16.499
  C       71.961    -558.445     -17.289
  N       72.194    -558.484     -18.622
  N       71.040    -557.643     -16.810
  C       70.865    -557.760     -15.468
  C       71.544    -558.577     -14.596
  C       72.592    -559.417     -15.125
  O       73.281    -560.202     -14.480
  N       71.089    -558.424     -13.312
  C       70.125    -557.529     -13.400
  N       69.973    -557.072     -14.691
  O       66.008    -555.668     -10.311
  O       66.536    -558.132     -10.776
  H       67.702    -557.837     -16.552
  H       65.111    -555.949     -10.545
  H       73.447    -559.845     -16.922
  H       69.533    -557.153     -12.579
  H       69.499    -555.582     -16.030
  H       67.327    -557.109     -14.490
  H       72.748    -559.217     -19.043
  H       65.912    -555.243     -14.624
  H       71.443    -558.119     -19.224
  H       67.875    -553.329     -14.009
  H       68.006    -554.314     -11.744
  H       66.344    -554.439     -12.311
  P       65.559    -554.373     -17.071
  C       64.535    -551.971     -16.623
  O       65.130    -552.892     -17.508
  O       64.427    -554.805     -16.042
  O       65.655    -555.307     -18.243
  H       64.070    -555.682     -16.282
  H       64.340    -551.055     -17.140
  H       65.198    -551.784     -15.804
  H       63.616    -552.375     -16.253

 6  7  8  9  10  11  12  13  14  15  26  29  33  34 0
 6-311+G(2d,p)
 ****
 36  38  39  40  41 0
 6-311+G(2d,p)
 ****
 1  2  3  4  5  16  17  18  19  20  21  22  23  24  25 0
 3-21G
 ****
 27  28  30  31  32  35  37  42  43  44  45  46  47 0
 3-21G
 ****
 48  49 0
 3-21G
 ****


