%nproc=1
%NoSave
%Mem=1900MB
#P OB98/GEN NMR

erre ene a

0 1
  C      -47.624     587.953    -132.806
  O      -48.499     588.075    -133.911
  P      -48.851     589.512    -134.522
  C      -51.233     590.528    -134.054
  O      -49.941     590.213    -133.581
  C      -52.205     589.406    -133.650
  O      -52.114     589.159    -132.232
  C      -53.650     589.777    -133.972
  O      -54.027     589.253    -135.240
  C      -54.411     589.161    -132.817
  O      -54.630     587.751    -133.040
  C      -53.421     589.377    -131.644
  N      -53.412     590.693    -130.971
  C      -54.299     590.937    -129.928
  O      -55.099     590.101    -129.499
  N      -54.258     592.203    -129.404
  C      -53.408     593.203    -129.782
  O      -53.539     594.383    -129.480
  C      -52.326     592.797    -130.691
  C      -52.386     591.588    -131.252
  O      -49.682     589.150    -135.840
  O      -47.680     590.388    -134.825
  H      -55.086     587.410    -132.248
  H      -49.113     589.199    -136.630
  H      -55.000     592.439    -128.746
  H      -51.546     593.514    -130.910
  H      -51.614     591.279    -131.948
  H      -53.568     588.609    -130.864
  H      -55.406     589.608    -132.713
  H      -53.781     590.865    -133.942
  H      -51.919     588.486    -134.176
  H      -51.214     590.644    -135.146
  H      -51.563     591.486    -133.637
  P      -55.291     589.869    -136.008
  C      -57.377     588.411    -136.320
  O      -56.568     589.117    -135.393
  O      -55.208     589.876    -137.498
  O      -55.395     591.357    -135.411
  H      -54.966     591.989    -136.024
  H      -58.099     587.800    -135.763
  H      -56.775     587.759    -136.951
  H      -57.929     589.129    -136.944
  H      -47.517     586.920    -132.548
  H      -48.026     588.489    -131.972
  H      -46.667     588.358    -133.062

 3  4  5  6  7  8  9  10  11  12  13  23  28  29  30  31  32 0
 6-311+G(2d,p)
 ****
 33  34 0
 6-311+G(2d,p)
 ****
 1  2  14  15  16  17  18  19  20  21  22  24  25  26  27 0
 3-21G
 ****
 35  36  37  38  39  40  41  42  43  44  45 0
 3-21G
 ****


