%nproc=1
%NoSave
%Mem=1900MB
#P OB98/GEN NMR

erre ene a

0 1
  C      167.310      46.211     429.392
  O      168.058      47.392     429.156
  P      167.242      48.711     428.741
  C      167.867      49.471     426.332
  O      167.042      48.653     427.152
  C      169.011      48.651     425.746
  O      168.528      47.357     425.321
  C      169.669      49.265     424.512
  O      170.519      50.341     424.868
  C      170.384      48.042     423.942
  O      171.599      47.803     424.670
  C      169.367      46.918     424.216
  N      168.658      43.788     420.229
  C      169.621      43.839     421.173
  N      169.756      44.712     422.191
  C      168.751      45.604     422.183
  C      167.714      45.692     421.273
  C      167.681      44.726     420.256
  N      166.698      44.679     419.292
  N      166.884      46.757     421.574
  C      167.405      47.292     422.653
  N      168.529      46.629     423.069
  O      168.311      49.881     428.940
  O      165.991      48.949     429.534
  H      172.152      48.600     424.570
  H      167.874      50.702     429.245
  H      170.390      43.071     421.107
  H      167.009      48.160     423.169
  H      169.847      45.982     424.519
  H      170.647      48.154     422.884
  H      168.902      49.614     423.809
  H      169.760      48.495     426.537
  H      168.286      50.285     426.931
  H      166.832      44.048     418.514
  H      166.054      45.461     419.229
  H      167.252      49.914     425.537
  P      171.107      51.236     423.675
  C      173.613      50.681     423.520
  O      172.306      50.346     423.081
  O      171.884      52.382     424.479
  O      170.094      51.711     422.688
  H      172.458      52.009     425.175
  H      174.323      49.971     423.083
  H      173.671      50.625     424.611
  H      173.867      51.693     423.184
  H      167.974      45.415     429.658
  H      166.773      45.946     428.505
  H      166.618      46.380     430.191

 3  4  5  6  7  8  9  10  11  12  22  25  29  30  31  32 0
 6-311+G(2d,p)
 ****
 33  36  37 0
 6-311+G(2d,p)
 ****
 1  2  13  14  15  16  17  18  19  20  21  23  24  26 0
 3-21G
 ****
 27  28  34  35  38  39  40  41  42  43  44  45  46  47  48 0
 3-21G
 ****


