%nproc=1
%NoSave
%Mem=1900MB
#P OB98/GEN NMR

erre ene a

0 1
  C     -150.824     -37.918      61.180
  O     -151.800     -37.074      60.600
  H     -150.390     -37.410      62.044
  H     -150.033     -38.128      60.455
  H     -151.283     -38.854      61.512
  P     -152.572     -37.653      59.317
  C     -150.684     -37.029      57.631
  O     -151.433     -38.056      58.261
  C     -149.982     -37.572      56.379
  O     -148.955     -38.521      56.794
  C     -150.917     -38.325      55.418
  O     -150.391     -38.185      54.088
  C     -150.748     -39.762      55.885
  O     -151.266     -40.668      54.939
  C     -149.241     -39.772      56.128
  N     -148.434     -44.820      56.238
  C     -148.832     -43.994      55.245
  N     -149.012     -42.659      55.290
  C     -148.716     -42.176      56.507
  C     -148.289     -42.895      57.615
  C     -148.154     -44.282      57.450
  N     -147.754     -45.127      58.459
  N     -148.088     -42.051      58.692
  C     -148.385     -40.848      58.243
  N     -148.779     -40.877      56.932
  O     -153.242     -36.349      58.675
  O     -153.576     -38.719      59.599
  H     -151.139     -41.592      55.237
  H     -154.165     -36.264      58.985
  H     -149.036     -44.471      54.290
  H     -148.344     -39.931      58.819
  H     -148.677     -39.785      55.188
  H     -151.294     -39.937      56.817
  H     -151.948     -37.963      55.442
  H     -149.469     -36.748      55.870
  H     -149.937     -36.657      58.341
  H     -151.350     -36.211      57.347
  H     -147.697     -46.112      58.263
  H     -147.557     -44.741      59.372
  P     -151.002     -37.058      53.119
  C     -152.222     -38.663      51.450
  O     -152.329     -37.640      52.428
  O     -149.962     -37.070      51.898
  O     -151.114     -35.688      53.705
  H     -149.944     -36.189      51.478
  H     -153.199     -38.926      51.101
  H     -151.754     -39.523      51.883
  H     -151.633     -38.311      50.629

 6  7  8  9  10  11  12  13  14  15  25  28  32  33  34  35 0
 6-311+G(2d,p)
 ****
 36  37  40 0
 6-311+G(2d,p)
 ****
 1  2  3  4  5  16  17  18  19  20  21  22  23  24 0
 3-21G
 ****
 26  27  29  30  31  38  39 41  42  43  44  45  46  47  48 0
 3-21G
 ****


