%nproc=1
%NoSave
%Mem=1900MB
#P OB98/GEN NMR

erre ene a

0 1
  C       -7.156     725.766     225.756
  O       -6.071     726.627     225.465
  P       -5.671     727.726     226.575
  C       -5.641     729.697     224.879
  O       -4.902     728.899     225.798
  C       -4.724     730.724     224.220
  O       -4.257     731.691     225.181
  C       -3.462     730.127     223.608
  O       -3.697     729.565     222.328
  C       -2.584     731.364     223.489
  O       -2.950     732.122     222.321
  C       -2.944     732.140     224.770
  N       -0.358     734.318     228.530
  C       -1.375     734.825     227.760
  N       -1.721     736.109     227.981
  N       -2.014     734.134     226.847
  C       -1.558     732.859     226.733
  C       -0.547     732.242     227.440
  C        0.151     733.024     228.439
  O        1.098     732.651     229.113
  N       -0.377     730.937     227.040
  C       -1.282     730.771     226.099
  N       -1.991     731.914     225.839
  O       -4.504     727.006     227.402
  O       -6.800     728.159     227.458
  H       -2.853     731.509     221.553
  H       -4.373     727.457     228.257
  H        0.108     734.896     229.217
  H       -1.446     729.838     225.565
  H       -3.009     733.218     224.590
  H       -1.522     731.120     223.386
  H       -1.226     736.720     228.621
  H       -2.987     729.407     224.284
  H       -2.428     736.531     227.385
  H       -5.307     731.260     223.450
  H       -6.449     730.212     225.413
  H       -6.097     729.049     224.123
  P       -4.018     727.992     222.277
  C       -1.916     727.111     221.035
  O       -3.293     727.443     220.958
  O       -5.580     727.964     221.891
  O       -3.742     727.263     223.546
  H       -5.993     727.143     222.217
  H       -1.653     726.516     220.143
  H       -1.695     726.518     221.932
  H       -1.311     728.027     221.041
  H       -7.308     725.094     224.937
  H       -8.041     726.347     225.909
  H       -6.939     725.206     226.642

 3  4  5  6  7  8  9  10  11  12  23  26  30  31 0
 6-311+G(2d,p)
 ****
 33  35  36  37  38 0
 6-311+G(2d,p)
 ****
 1  2  13  14  15  16  17  18  19  20  21  22  24  25 0
 3-21G
 ****
 27  28  29  32  34  39  40  41  42  43  44  45  46  47  48  49 0
 3-21G
 ****


