%nproc=1
%NoSave
%Mem=1900MB
#P OB98/GEN NMR

erre ene a

0 1
  C       35.317    -154.261       3.370
  O       34.763    -153.143       4.025
  H       36.055    -154.721       4.034
  H       35.826    -153.955       2.453
  H       34.544    -154.999       3.143
  P       33.673    -152.245       3.259
  C       31.378    -153.380       3.428
  O       32.292    -152.488       4.052
  C       30.111    -153.545       4.269
  O       29.100    -154.244       3.493
  C       30.329    -154.341       5.566
  O       29.714    -153.660       6.661
  C       29.602    -155.651       5.306
  O       29.195    -156.310       6.502
  C       28.470    -155.177       4.388
  N       27.835    -156.283       3.685
  C       27.155    -157.210       4.479
  O       27.112    -157.066       5.702
  N       26.589    -158.306       3.881
  C       26.731    -158.485       2.605
  N       26.171    -159.607       2.078
  C       27.464    -157.545       1.732
  C       27.982    -156.473       2.331
  O       33.604    -152.469       1.787
  O       34.039    -150.737       3.649
  H       30.000    -156.573       7.002
  H       33.665    -150.131       2.967
  H       27.558    -157.744       0.674
  H       28.539    -155.729       1.772
  H       27.703    -154.637       4.958
  H       30.267    -156.331       4.756
  H       31.381    -154.507       5.796
  H       29.702    -152.550       4.481
  H       25.683    -160.228       2.714
  H       31.873    -154.348       3.287
  H       26.236    -159.865       1.106
  H       31.105    -152.969       2.451
  P       30.706    -153.068       7.775
  C       31.034    -150.618       6.982
  O       30.413    -151.495       7.911
  O       32.138    -153.137       7.067
  O       30.687    -153.834       9.055
  H       32.686    -153.823       7.494
  H       30.747    -149.610       7.196
  H       30.726    -150.873       5.990
  H       32.097    -150.710       7.060

 6  7  8  9  10  11  12  13  14  15  16  26  30  31  32  33  35 0
 6-311+G(2d,p)
 ****
 37  38 0
 6-311+G(2d,p)
 ****
 1  2  3  4  5  17  18  19  20  21  22  23  24  25 0
 3-21G
 ****
 27  28  29  34  36  39  40  41  42  43  44  45  46 0
 3-21G
 ****


