%nproc=1
%NoSave
%Mem=1900MB
#P OB98/GEN NMR

erre ene a

0 1
  C     -238.985    -408.828     225.675
  O     -239.299    -407.779     224.769
  P     -240.123    -406.531     225.348
  C     -242.497    -407.598     225.243
  O     -241.600    -406.626     224.721
  C     -243.931    -407.240     224.859
  O     -244.289    -405.957     225.407
  C     -244.176    -407.127     223.357
  O     -244.259    -408.410     222.754
  C     -245.490    -406.340     223.350
  O     -246.594    -407.211     223.625
  C     -245.275    -405.357     224.524
  N     -246.463    -400.390     224.097
  C     -247.175    -401.455     224.541
  N     -246.793    -402.751     224.607
  C     -245.539    -402.906     224.159
  C     -244.697    -401.922     223.659
  C     -245.202    -400.604     223.635
  N     -244.475    -399.529     223.188
  N     -243.487    -402.453     223.268
  C     -243.592    -403.743     223.538
  N     -244.801    -404.059     224.088
  O     -239.480    -405.278     224.579
  O     -240.067    -406.367     226.831
  H     -246.704    -407.790     222.841
  H     -239.467    -404.492     225.155
  H     -248.177    -401.236     224.892
  H     -242.816    -404.478     223.354
  H     -246.190    -405.195     225.108
  H     -245.685    -405.849     222.391
  H     -243.386    -406.534     222.883
  H     -244.601    -407.997     225.300
  H     -242.422    -407.621     226.333
  H     -244.966    -398.656     223.069
  H     -243.599    -399.710     222.713
  H     -242.218    -408.583     224.852
  P     -242.970    -408.899     221.918
  C     -243.009    -407.116     220.068
  O     -243.303    -408.461     220.410
  O     -243.202    -410.484     221.881
  O     -241.659    -408.443     222.456
  H     -244.102    -410.711     221.609
  H     -243.235    -406.966     219.011
  H     -241.956    -406.890     220.247
  H     -243.634    -406.429     220.661
  H     -238.438    -409.591     225.162
  H     -239.890    -409.242     226.069
  H     -238.391    -408.441     226.476

 3  4  5  6  7  8  9  10  11  12  22  25  29  30  31  32 0
 6-311+G(2d,p)
 ****
 33  36  37 0
 6-311+G(2d,p)
 ****
 1  2  13  14  15  16  17  18  19  20  21  23  24  26 0
 3-21G
 ****
 27  28  34  35  38  39  40  41  42  43  44  45  46  47  48 0
 3-21G
 ****


