%nproc=1
%NoSave
%Mem=1900MB
#P OB98/GEN NMR

erre ene a

0 1
  C      220.349     -96.078     103.680
  O      221.230     -95.092     104.170
  H      220.888     -96.710     102.970
  H      219.511     -95.606     103.160
  H      219.976     -96.703     104.497
  P      220.697     -94.143     105.349
  C      221.130     -95.286     107.640
  O      221.630     -94.428     106.626
  C      221.877     -95.050     108.954
  O      221.235     -95.819     110.003
  C      223.352     -95.460     108.904
  O      224.116     -94.514     109.656
  C      223.374     -96.803     109.611
  O      224.649     -97.107     110.177
  C      222.241     -96.636     110.632
  N      221.706     -97.927     111.054
  C      222.426     -98.616     112.034
  O      223.464     -98.134     112.494
  N      221.992     -99.854     112.431
  C      220.975    -100.398     111.837
  N      220.611    -101.641     112.253
  C      220.226     -99.739     110.750
  C      220.636     -98.514     110.419
  O      219.302     -94.811     105.760
  O      220.556     -92.701     104.996
  H      224.597     -97.993     110.596
  H      218.665     -94.138     106.068
  H      219.401    -100.242     110.268
  H      220.151     -97.954     109.627
  H      222.598     -96.097     111.519
  H      223.127     -97.598     108.896
  H      223.748     -95.523     107.887
  H      221.776     -93.992     109.225
  H      221.161    -102.069     112.989
  H      221.275     -96.326     107.332
  H      219.866    -102.177     111.833
  H      220.058     -95.104     107.775
  P      225.395     -93.878     108.927
  C      225.017     -91.427     108.151
  O      225.396     -92.300     109.208
  O      225.027     -93.988     107.374
  O      226.676     -94.580     109.242
  H      225.574     -94.676     106.950
  H      225.067     -90.413     108.490
  H      224.017     -91.651     107.844
  H      225.682     -91.560     107.323

 6  7  8  9  10  11  12  13  14  15  16  26  30  31  32  33  35 0
 6-311+G(2d,p)
 ****
 37  38 0
 6-311+G(2d,p)
 ****
 1  2  3  4  5  17  18  19  20  21  22  23  24  25 0
 3-21G
 ****
 27  28  29  34  36  39  40  41  42  43  44  45  46 0
 3-21G
 ****


