%nproc=1
%NoSave
%Mem=1900MB
#P OB98/GEN NMR

erre ene a

0 1
  C      839.537    -156.304     351.874
  O      839.166    -157.065     350.745
  P      839.340    -156.492     349.253
  C      841.492    -157.718     348.551
  O      840.076    -157.668     348.447
  C      842.015    -159.062     348.072
  O      841.701    -160.065     349.062
  C      841.402    -159.587     346.771
  O      842.019    -159.077     345.577
  C      841.698    -161.076     346.886
  O      843.076    -161.325     346.539
  C      841.467    -161.323     348.375
  N      838.591    -165.487     349.168
  C      839.917    -165.325     348.940
  N      840.607    -164.189     348.729
  C      839.792    -163.122     348.781
  C      838.414    -163.129     349.028
  C      837.814    -164.364     349.210
  N      836.468    -164.523     349.468
  N      837.934    -161.827     349.009
  C      838.982    -161.075     348.789
  N      840.139    -161.802     348.663
  O      839.986    -155.151     349.184
  O      837.864    -156.504     348.657
  H      843.217    -160.932     345.657
  H      837.818    -155.938     347.859
  H      840.512    -166.236     348.927
  H      838.964    -159.997     348.708
  H      842.185    -162.047     348.795
  H      841.081    -161.681     346.216
  H      840.313    -159.430     346.740
  H      843.111    -159.000     347.982
  H      841.765    -157.586     349.605
  H      836.140    -165.455     349.723
  H      835.925    -163.701     349.664
  H      841.927    -156.896     347.980
  P      841.204    -159.257     344.206
  C      840.578    -156.732     343.850
  O      841.337    -157.848     343.440
  O      839.812    -159.752     344.366
  O      842.152    -160.228     343.358
  H      843.011    -159.853     343.083
  H      840.942    -155.852     343.325
  H      840.686    -156.554     344.921
  H      839.523    -156.884     343.602
  H      839.341    -156.866     352.763
  H      838.971    -155.396     351.894
  H      840.580    -156.073     351.821

 3  4  5  6  7  8  9  10  11  12  22  25  29  30  31  32 0
 6-311+G(2d,p)
 ****
 33  36  37 0
 6-311+G(2d,p)
 ****
 1  2  13  14  15  16  17  18  19  20  21  23  24  26 0
 3-21G
 ****
 27  28  34  35  38  39  40  41  42  43  44  45  46  47  48 0
 3-21G
 ****


