%nproc=1
%NoSave
%Mem=1900MB
#P OB98/GEN NMR

erre ene a

0 1
  C      351.876    -407.427    -567.460
  O      353.110    -407.416    -566.758
  H      352.083    -407.554    -568.526
  H      351.358    -406.477    -567.320
  H      351.245    -408.253    -567.119
  P      353.085    -407.340    -565.160
  C      352.441    -409.719    -564.427
  O      351.980    -408.397    -564.660
  C      351.445    -410.484    -563.559
  O      350.161    -410.523    -564.236
  C      351.864    -411.933    -563.270
  O      351.489    -412.258    -561.929
  C      351.032    -412.744    -564.247
  O      350.800    -414.072    -563.785
  C      349.759    -411.899    -564.345
  N      345.491    -413.695    -566.373
  C      345.851    -413.526    -565.045
  N      344.947    -413.920    -564.122
  N      346.995    -413.021    -564.669
  C      347.787    -412.666    -565.697
  C      347.551    -412.777    -567.046
  C      346.297    -413.351    -567.455
  O      345.928    -413.530    -568.613
  N      348.628    -412.321    -567.781
  C      349.506    -411.936    -566.877
  N      349.054    -412.129    -565.598
  O      352.934    -405.971    -564.583
  O      354.470    -408.018    -564.723
  H      351.619    -414.588    -563.964
  H      355.131    -407.342    -564.505
  H      344.604    -414.096    -566.610
  H      350.477    -411.520    -567.085
  H      349.055    -412.124    -563.537
  H      351.544    -412.799    -565.216
  H      344.041    -414.298    -564.344
  H      352.936    -412.101    -563.404
  H      345.177    -413.785    -563.140
  H      351.294    -409.932    -562.626
  H      353.412    -409.664    -563.921
  H      352.573    -410.231    -565.388
  P      352.411    -413.258    -561.089
  C      353.505    -411.531    -559.522
  O      353.707    -412.449    -560.592
  O      352.692    -414.574    -561.733
  O      351.580    -413.452    -559.730
  H      351.762    -414.341    -559.369
  H      354.433    -411.056    -559.280
  H      353.140    -412.057    -558.665
  H      352.791    -410.791    -559.817

 6  7  8  9  10  11  12  13  14  15  26  29  33  34 0
 6-311+G(2d,p)
 ****
 36  38  39  40  41 0
 6-311+G(2d,p)
 ****
 1  2  3  4  5  16  17  18  19  20  21  22  23  24  25 0
 3-21G
 ****
 27  28  30  31  32  35  37  42  43  44  45  46  47 0
 3-21G
 ****
 48  49 0
 3-21G
 ****


