%nproc=1
%NoSave
%Mem=1900MB
#P OB98/GEN NMR

erre ene a

0 1
  C      -35.804    -578.194    -167.806
  O      -35.426    -576.961    -168.380
  H      -36.812    -578.444    -168.152
  H      -35.820    -578.108    -166.718
  H      -35.126    -578.994    -168.105
  P      -33.896    -576.494    -168.279
  C      -32.648    -577.952    -170.002
  O      -33.262    -576.700    -169.739
  C      -32.042    -577.979    -171.411
  O      -31.228    -579.177    -171.549
  C      -33.089    -578.001    -172.534
  O      -32.519    -577.326    -173.662
  C      -33.207    -579.490    -172.819
  O      -33.803    -579.733    -174.070
  C      -31.744    -579.921    -172.668
  N      -31.605    -581.370    -172.484
  C      -31.724    -582.151    -173.624
  O      -31.970    -581.690    -174.742
  N      -31.602    -583.501    -173.436
  C      -31.438    -584.128    -172.238
  O      -31.362    -585.347    -172.125
  C      -31.365    -583.251    -171.063
  C      -31.449    -581.932    -171.233
  O      -33.107    -577.102    -167.166
  O      -33.974    -574.900    -168.157
  H      -34.674    -579.277    -174.132
  H      -33.220    -574.567    -167.634
  H      -31.674    -584.088    -174.257
  H      -31.246    -583.719    -170.091
  H      -31.395    -581.252    -170.385
  H      -31.168    -579.636    -173.558
  H      -33.828    -579.979    -172.059
  H      -34.039    -577.542    -172.253
  H      -31.370    -577.122    -171.521
  H      -33.414    -578.732    -169.912
  H      -31.866    -578.136    -169.258
  P      -32.750    -575.759    -173.925
  C      -31.046    -574.592    -172.384
  O      -31.354    -574.988    -173.716
  O      -33.895    -575.171    -173.162
  O      -33.007    -575.637    -175.504
  H      -33.565    -574.864    -175.689
  H      -30.100    -574.092    -172.370
  H      -31.001    -575.457    -171.756
  H      -31.805    -573.929    -172.024

 6  7  8  9  10  11  12  13  14  15  16  26  31  32  33  34  35 0
 6-311+G(2d,p)
 ****
 36  37 0
 6-311+G(2d,p)
 ****
 1  2  3  4  5  17  18  19  20  21  22  23  24  25 0
 3-21G
 ****
 27  28  29  30  38  39  40  41  42  43  44  45 0
 3-21G
 ****


