%nproc=1
%NoSave
%Mem=1900MB
#P OB98/GEN NMR

erre ene a

0 1
  C      174.213     245.988     132.478
  O      174.294     246.715     133.692
  P      174.145     248.307     133.642
  C      176.676     248.868     133.471
  O      175.406     248.890     132.840
  C      177.509     250.077     133.039
  O      177.951     249.886     131.659
  C      176.752     251.411     133.095
  O      177.699     252.428     133.449
  C      176.312     251.599     131.654
  O      175.982     252.945     131.343
  C      177.547     251.059     130.925
  N      177.287     250.751     129.520
  C      178.119     251.338     128.573
  O      179.051     252.094     128.847
  N      177.812     251.079     127.263
  C      176.725     250.381     126.815
  O      176.440     250.282     125.629
  C      175.880     249.787     127.862
  C      176.192     249.992     129.143
  O      174.417     248.750     135.155
  O      172.822     248.793     133.148
  H      175.141     253.151     131.788
  H      173.573     248.924     135.616
  H      178.410     251.485     126.563
  H      175.022     249.207     127.542
  H      175.578     249.582     129.936
  H      178.373     251.779     130.992
  H      175.429     250.982     131.458
  H      175.914     251.408     133.798
  H      178.410     250.120     133.663
  H      177.200     247.951     133.191
  H      176.548     248.859     134.558
  P      177.232     253.557     134.496
  C      177.590     255.631     132.945
  O      176.688     254.789     133.632
  O      178.653     254.062     135.040
  O      176.329     253.042     135.569
  H      179.308     254.172     134.330
  H      178.457     255.078     132.579
  H      177.928     256.424     133.619
  H      177.075     256.085     132.097
  H      174.331     244.944     132.679
  H      174.987     246.313     131.815
  H      173.259     246.158     132.023

 3  4  5  6  7  8  9  10  11  12  13  23  28  29  30  31  32 0
 6-311+G(2d,p)
 ****
 33  34 0
 6-311+G(2d,p)
 ****
 1  2  14  15  16  17  18  19  20  21  22  24  25  26 0
 3-21G
 ****
 27  35  36  37  38  39  40  41  42  43  44  45 0
 3-21G
 ****


