%nproc=1
%NoSave
%Mem=1900MB
#P OB98/GEN NMR

erre ene a

0 1
  C      -94.744     106.570     102.196
  O      -96.157     106.500     101.969
  P      -97.134     106.985     103.143
  C      -98.289     105.906     105.209
  O      -97.494     105.713     104.050
  C      -98.600     104.561     105.875
  O      -99.546     103.788     105.101
  C      -97.376     103.669     106.048
  O      -96.636     104.009     107.212
  C      -98.029     102.308     106.231
  O      -98.495     102.166     107.588
  C      -99.217     102.384     105.261
  N      -98.320      98.061     102.790
  C      -98.592      98.283     104.127
  N      -98.640      97.191     104.921
  N      -98.799      99.469     104.639
  C      -98.738     100.465     103.724
  C      -98.474     100.372     102.376
  C      -98.234      99.058     101.825
  O      -97.974      98.800     100.651
  N      -98.493     101.604     101.778
  C      -98.783     102.443     102.755
  N      -98.926     101.800     103.963
  O      -98.508     107.265     102.370
  O      -96.656     108.193     103.879
  H      -97.744     102.397     108.167
  H      -99.023     107.946     102.843
  H      -98.164      97.128     102.451
  H      -98.901     103.512     102.643
  H     -100.109     101.879     105.650
  H      -97.334     101.483     106.048
  H      -98.538      96.245     104.585
  H      -96.752     103.670     105.142
  H      -98.872      97.331     105.898
  H      -99.040     104.760     106.861
  H      -99.223     106.414     104.949
  H      -97.765     106.580     105.893
  P      -95.320     104.908     107.026
  C      -92.804     104.395     106.631
  O      -94.102     103.881     106.865
  O      -95.111     105.536     108.483
  O      -95.429     105.965     105.978
  H      -94.701     106.419     108.410
  H      -92.086     103.575     106.711
  H      -92.550     105.160     107.367
  H      -92.745     104.816     105.622
  H      -94.226     106.215     101.330
  H      -94.488     105.963     103.039
  H      -94.464     107.584     102.389

 3  4  5  6  7  8  9  10  11  12  23  26  30  31 0
 6-311+G(2d,p)
 ****
 33  35  36  37  38 0
 6-311+G(2d,p)
 ****
 1  2  13  14  15  16  17  18  19  20  21  22  24  25 0
 3-21G
 ****
 27  28  29  32  34  39  40  41  42  43  44  45  46  47  48  49 0
 3-21G
 ****


