%nproc=1
%NoSave
%Mem=1900MB
#P OB98/GEN NMR

erre ene a

0 1
  C       -9.104     -81.177      31.564
  O      -10.318     -81.016      32.269
  H       -9.215     -82.007      30.861
  H       -8.286     -81.410      32.251
  H       -8.869     -80.271      30.999
  P      -10.390     -79.909      33.423
  C      -11.504     -78.437      31.611
  O      -10.572     -78.499      32.685
  C      -12.084     -77.031      31.483
  O      -12.904     -76.933      30.301
  C      -12.980     -76.619      32.645
  O      -12.205     -76.303      33.784
  C      -13.729     -75.454      32.020
  O      -12.918     -74.269      32.004
  C      -13.956     -75.978      30.580
  N      -15.269     -76.583      30.382
  C      -16.286     -75.719      29.959
  O      -16.053     -74.523      29.789
  N      -17.542     -76.237      29.759
  C      -17.756     -77.504      29.921
  N      -19.020     -77.953      29.702
  C      -16.704     -78.453      30.332
  C      -15.501     -77.929      30.554
  O       -9.288     -79.939      34.437
  O      -11.820     -80.150      34.100
  H      -12.755     -74.039      32.940
  H      -11.738     -80.739      34.874
  H      -16.925     -79.505      30.446
  H      -14.671     -78.558      30.860
  H      -13.844     -75.163      29.854
  H      -14.642     -75.209      32.562
  H      -13.701     -77.413      32.868
  H      -11.248     -76.330      31.363
  H      -19.704     -77.267      29.401
  H      -12.300     -79.154      31.835
  H      -19.263     -78.931      29.639
  H      -11.028     -78.735      30.670
  P      -12.877     -75.742      35.127
  C      -12.764     -77.935      36.464
  O      -13.606     -77.000      35.808
  O      -13.737     -74.537      34.951
  O      -11.630     -75.499      36.098
  H      -11.156     -74.667      35.849
  H      -13.359     -78.723      36.876
  H      -12.230     -77.444      37.250
  H      -12.068     -78.343      35.761

 6  7  8  9  10  11  12  13  14  15  16  26  30  31  32  33  35 0
 6-311+G(2d,p)
 ****
 37  38 0
 6-311+G(2d,p)
 ****
 1  2  3  4  5  17  18  19  20  21  22  23  24  25 0
 3-21G
 ****
 27  28  29  34  36  39  40  41  42  43  44  45  46 0
 3-21G
 ****


