%nproc=1
%NoSave
%Mem=1900MB
#P OB98/GEN NMR

erre ene a

0 1
  C     -190.071    -135.866      -5.018
  O     -190.909    -136.977      -4.751
  P     -191.097    -138.141      -5.828
  C     -193.580    -137.347      -6.144
  O     -192.376    -137.802      -6.719
  C     -194.705    -137.472      -7.178
  O     -194.576    -136.446      -8.182
  C     -194.670    -138.828      -7.883
  O     -195.543    -139.745      -7.245
  C     -195.090    -138.478      -9.298
  O     -196.522    -138.371      -9.385
  C     -194.436    -137.085      -9.479
  N     -193.013    -137.031      -9.866
  C     -192.644    -137.321     -11.176
  O     -193.444    -137.596     -12.064
  N     -191.295    -137.307     -11.431
  C     -190.318    -136.993     -10.533
  O     -189.122    -137.216     -10.700
  C     -190.784    -136.436      -9.258
  C     -192.085    -136.503      -8.979
  O     -191.584    -139.380      -4.940
  O     -189.884    -138.473      -6.634
  H     -196.724    -137.895     -10.211
  H     -190.839    -139.978      -4.745
  H     -191.014    -137.652     -12.343
  H     -190.049    -136.045      -8.569
  H     -192.452    -136.132      -8.025
  H     -194.991    -136.484     -10.210
  H     -194.798    -139.256     -10.000
  H     -193.643    -139.216      -7.907
  H     -195.669    -137.331      -6.674
  H     -193.472    -136.304      -5.823
  H     -193.816    -137.936      -5.253
  P     -195.306    -141.318      -7.423
  C     -197.324    -141.684      -8.961
  O     -195.912    -141.675      -8.866
  O     -195.780    -142.174      -6.297
  O     -193.720    -141.428      -7.625
  H     -193.293    -141.663      -6.776
  H     -197.602    -141.762     -10.014
  H     -197.744    -140.763      -8.550
  H     -197.725    -142.548      -8.425
  H     -190.079    -135.203      -4.178
  H     -190.429    -135.349      -5.884
  H     -189.072    -136.207      -5.194

 3  4  5  6  7  8  9  10  11  12  13  23  28  29  30  31  32 0
 6-311+G(2d,p)
 ****
 33  34 0
 6-311+G(2d,p)
 ****
 1  2  14  15  16  17  18  19  20  21  22  24  25  26  27 0
 3-21G
 ****
 35  36  37  38  39  40  41  42  43  44  45 0
 3-21G
 ****


