%nproc=1
%NoSave
%Mem=1900MB
#P OB98/GEN NMR

erre ene a

0 1
  C      -38.659    -896.220    1085.440
  O      -38.322    -895.100    1084.642
  H      -37.926    -896.280    1086.257
  H      -38.601    -897.130    1084.852
  H      -39.662    -896.100    1085.874
  P      -39.333    -894.660    1083.466
  C      -37.295    -893.460    1082.374
  O      -38.422    -894.330    1082.185
  C      -36.342    -893.570    1081.211
  O      -35.652    -894.850    1081.275
  C      -36.992    -893.530    1079.824
  O      -37.364    -892.220    1079.479
  C      -35.897    -894.160    1078.966
  O      -34.902    -893.160    1078.621
  C      -35.303    -895.220    1079.924
  N      -35.786    -896.560    1079.577
  C      -34.954    -897.360    1078.827
  O      -33.829    -897.000    1078.411
  N      -35.454    -898.590    1078.449
  C      -36.728    -899.010    1078.669
  O      -37.204    -900.000    1078.127
  C      -37.540    -898.170    1079.537
  C      -37.078    -896.990    1079.939
  O      -40.324    -893.610    1083.820
  O      -40.034    -896.050    1083.053
  H      -40.928    -896.050    1083.450
  H      -34.223    -893.640    1078.107
  H      -34.868    -899.150    1077.861
  H      -38.555    -898.520    1079.797
  H      -37.673    -896.320    1080.558
  H      -34.204    -895.200    1079.857
  H      -36.285    -894.550    1078.046
  H      -37.870    -894.200    1079.814
  H      -35.568    -892.760    1081.308
  H      -36.808    -893.730    1083.314
  H      -37.680    -892.420    1082.464
  P      -38.495    -891.980    1078.337
  C      -37.806    -889.487    1078.219
  O      -38.057    -890.689    1077.487
  O      -39.914    -891.960    1078.802
  O      -38.249    -893.190    1077.297
  H      -39.112    -893.610    1077.114
  H      -37.525    -888.709    1077.541
  H      -37.014    -889.654    1078.918
  H      -38.692    -889.199    1078.746

 6  7  8  9  10  11  12  13  14  15  16  27  31  32  33  34  35 0
 6-311+G(2d,p)
 ****
 36  37 0
 6-311+G(2d,p)
 ****
 1  2  3  4  5  17  18  19  20  21  22  23  24  25 0
 3-21G
 ****
 26  28  29  30  38  39  40  41  42  43  44  45 0
 3-21G
 ****


