%nproc=1
%NoSave
%Mem=1900MB
#P OB98/GEN NMR

erre ene a

0 1
  C       -9.073    -301.961      15.154
  O       -9.815    -301.953      13.947
  H       -9.743    -302.235      15.974
  H       -8.663    -300.966      15.351
  H       -8.265    -302.695      15.095
  P       -8.999    -301.596      12.610
  C      -10.064    -299.243      12.791
  O       -9.816    -300.375      11.967
  C      -11.363    -298.555      12.378
  O      -11.698    -297.505      13.303
  C      -11.315    -297.895      11.002
  O      -11.516    -298.852       9.976
  C      -12.487    -296.931      11.109
  O      -13.722    -297.642      10.892
  C      -12.408    -296.463      12.577
  N      -12.501    -292.001      15.115
  C      -13.414    -292.991      15.004
  N      -13.338    -294.129      14.277
  C      -12.171    -294.193      13.620
  C      -11.142    -293.264      13.635
  C      -11.336    -292.125      14.437
  N      -10.396    -291.123      14.556
  N      -10.099    -293.673      12.831
  C      -10.467    -294.854      12.379
  N      -11.729    -295.199      12.799
  O       -8.702    -302.743      11.707
  O       -7.715    -300.862      13.224
  H      -14.452    -297.045      11.134
  H       -7.967    -300.308      13.985
  H      -14.328    -292.853      15.574
  H       -9.856    -295.505      11.764
  H      -13.401    -296.369      13.029
  H      -12.442    -296.138      10.362
  H      -10.394    -297.320      10.866
  H      -12.168    -299.301      12.426
  H       -9.226    -298.535      12.725
  H      -10.680    -290.270      15.011
  H       -9.587    -291.158      13.956
  H      -10.136    -299.597      13.825
  P      -10.397    -299.078       8.843
  C      -11.305    -297.233       7.300
  O      -11.064    -298.625       7.455
  O       -9.784    -300.433       8.822
  O       -9.314    -297.935       9.115
  H       -8.409    -298.280       8.958
  H      -11.748    -297.052       6.343
  H      -10.379    -296.701       7.370
  H      -11.969    -296.898       8.070

 6  7  8  9  10  11  12  13  14  15  25  28  32  33  34  35 0
 6-311+G(2d,p)
 ****
 36  39  40 0
 6-311+G(2d,p)
 ****
 1  2  3  4  5  16  17  18  19  20  21  22  23  24 0
 3-21G
 ****
 26  27  29  30  31  37  38  41  42  43  44  45  46  47 0
 3-21G
 ****
 48 0
 3-21G
 ****


