%nproc=1
%NoSave
%Mem=1900MB
#P OB98/GEN NMR

erre ene a

0 1
  C     -114.158     -90.060    -167.033
  O     -115.406     -90.118    -166.355
  P     -115.454     -90.901    -164.950
  C     -114.967     -93.385    -164.358
  O     -115.454     -92.461    -165.326
  C     -115.741     -94.697    -164.431
  O     -117.140     -94.465    -164.170
  C     -115.684     -95.390    -165.783
  O     -114.495     -96.145    -165.951
  C     -116.889     -96.313    -165.684
  O     -116.550     -97.476    -164.900
  C     -117.899     -95.442    -164.930
  N     -122.814     -94.281    -165.748
  C     -122.216     -95.054    -164.814
  N     -120.901     -95.322    -164.669
  C     -120.185     -94.730    -165.642
  C     -120.663     -93.947    -166.680
  C     -122.045     -93.715    -166.709
  N     -122.654     -92.903    -167.644
  N     -119.626     -93.519    -167.481
  C     -118.542     -94.024    -166.933
  N     -118.824     -94.758    -165.813
  O     -116.951     -90.642    -164.446
  O     -114.438     -90.465    -163.950
  H     -117.353     -98.031    -164.857
  H     -116.999     -90.742    -163.475
  H     -122.878     -95.509    -164.083
  H     -117.536     -93.881    -167.303
  H     -118.494     -96.019    -164.213
  H     -117.229     -96.675    -166.659
  H     -115.837     -94.676    -166.602
  H     -115.357     -95.360    -163.642
  H     -115.088     -92.952    -163.359
  H     -123.616     -92.640    -167.488
  H     -122.063     -92.326    -168.229
  H     -113.899     -93.560    -164.536
  P     -113.480     -95.651    -167.095
  C     -113.412     -95.924    -169.681
  O     -114.074     -96.227    -168.466
  O     -112.177     -96.542    -166.834
  O     -113.185     -94.188    -167.061
  H     -111.379     -96.087    -167.169
  H     -113.748     -96.627    -170.447
  H     -112.326     -96.019    -169.571
  H     -113.662     -94.907    -169.997
  H     -114.273     -89.513    -167.946
  H     -113.824     -91.053    -167.252
  H     -113.437     -89.570    -166.412

 3  4  5  6  7  8  9  10  11  12  22  25  29  30  31  32 0
 6-311+G(2d,p)
 ****
 33  36  37 0
 6-311+G(2d,p)
 ****
 1  2  13  14  15  16  17  18  19  20  21  23  24  26 0
 3-21G
 ****
 27  28  34  35  38  39  40  41  42  43  44  45  46  47  48 0
 3-21G
 ****


