%nproc=1
%NoSave
%Mem=1900MB
#P OB98/GEN NMR

erre ene a

0 1
  C     -184.233    -874.143     399.278
  O     -185.456    -874.027     398.525
  P     -186.856    -874.644     399.018
  C     -188.308    -872.649     398.231
  O     -188.025    -874.045     398.098
  C     -188.116    -871.929     396.898
  O     -186.802    -872.193     396.365
  C     -189.063    -872.352     395.780
  O     -190.383    -871.869     395.977
  C     -188.359    -871.782     394.558
  O     -188.685    -870.402     394.352
  C     -186.868    -871.910     394.948
  N     -186.166    -872.933     394.185
  C     -185.641    -872.535     392.942
  O     -185.846    -871.402     392.517
  N     -184.912    -873.438     392.220
  C     -184.806    -874.674     392.642
  N     -184.057    -875.523     391.893
  C     -185.466    -875.166     393.868
  C     -186.109    -874.254     394.590
  O     -187.106    -874.486     400.488
  O     -186.796    -876.189     398.610
  H     -187.376    -876.702     399.202
  H     -187.989    -870.031     393.782
  H     -185.382    -876.198     394.160
  H     -186.609    -874.517     395.511
  H     -186.357    -870.948     394.814
  H     -188.626    -872.316     393.636
  H     -189.076    -873.446     395.719
  H     -188.206    -870.848     397.080
  H     -183.612    -875.153     391.061
  H     -187.624    -872.218     398.973
  H     -183.895    -876.490     392.143
  H     -189.329    -872.530     398.602
  P     -191.586    -872.860     395.592
  C     -193.115    -872.355     397.633
  O     -192.927    -872.256     396.238
  O     -191.291    -874.166     396.462
  O     -191.683    -873.180     394.135
  H     -191.504    -874.963     395.946
  H     -193.763    -871.540     397.959
  H     -192.161    -872.306     398.169
  H     -193.609    -873.307     397.860
  H     -183.441    -873.656     398.749
  H     -183.991    -875.177     399.409
  H     -184.359    -873.682     400.236

 3  4  5  6  7  8  9  10  11  12  13  24  27  28  29  30  32 0
 6-311+G(2d,p)
 ****
 34  35 0
 6-311+G(2d,p)
 ****
 1  2  14  15  16  17  18  19  20  21  22  23  25  26 0
 3-21G
 ****
 31  33  36  37  38  39  40  41  42  43  44  45  46 0
 3-21G
 ****


