%nproc=1
%NoSave
%Mem=1900MB
#P OB98/GEN NMR

erre ene a

0 1
  C      252.548     -49.081      95.332
  O      252.617     -50.480      95.138
  H      251.821     -48.871      96.124
  H      252.222     -48.580      94.414
  H      253.525     -48.697      95.638
  P      253.608     -50.996      93.986
  C      251.766     -50.807      92.192
  O      253.031     -50.338      92.639
  C      251.240     -49.931      91.049
  O      250.779     -48.672      91.603
  C      252.306     -49.612      89.993
  O      251.693     -49.616      88.701
  C      252.737     -48.198      90.334
  O      253.266     -47.489      89.220
  C      251.447     -47.602      90.910
  N      252.931     -42.725      91.162
  C      252.615     -43.525      90.121
  N      252.211     -44.809      90.141
  C      252.100     -45.250      91.410
  C      252.383     -44.559      92.576
  C      252.826     -43.229      92.423
  N      253.173     -42.418      93.477
  N      252.187     -45.364      93.686
  C      251.771     -46.526      93.189
  N      251.720     -46.505      91.818
  O      253.818     -52.474      93.932
  O      254.921     -50.127      94.267
  H      254.165     -47.832      89.030
  H      254.698     -49.194      94.449
  H      252.709     -43.067      89.134
  H      251.519     -47.399      93.780
  H      250.785     -47.216      90.124
  H      253.522     -48.234      91.111
  H      253.142     -50.308      90.011
  H      250.373     -50.419      90.601
  H      251.041     -50.794      93.024
  H      253.462     -41.477      93.280
  H      253.081     -42.772      94.421
  H      251.894     -51.836      91.856
  P      252.066     -50.809      87.687
  C      254.389     -50.060      86.809
  O      253.668     -50.969      87.646
  O      251.393     -50.760      86.359
  O      251.619     -52.108      88.514
  H      251.237     -52.762      87.887
  H      255.436     -50.272      86.871
  H      254.208     -49.057      87.133
  H      254.062     -50.172      85.796

 6  7  8  9  10  11  12  13  14  15  25  28  32  33  34  35 0
 6-311+G(2d,p)
 ****
 36  39  40 0
 6-311+G(2d,p)
 ****
 1  2  3  4  5  16  17  18  19  20  21  22  23  24 0
 3-21G
 ****
 26  27  29  30  31  37  38  41  42  43  44  45  46  47 0
 3-21G
 ****
 48 0
 3-21G
 ****


