%nproc=1
%NoSave
%Mem=1900MB
#P OB98/GEN NMR

erre ene a

0 1
  C      791.947    -142.446    -274.858
  O      791.665    -142.403    -273.479
  H      791.563    -141.532    -275.324
  H      791.464    -143.306    -275.333
  H      793.030    -142.496    -275.021
  P      791.896    -143.740    -272.614
  C      791.108    -146.194    -272.844
  O      790.918    -144.838    -273.259
  C      789.779    -146.851    -272.464
  O      789.236    -146.228    -271.279
  C      788.700    -146.690    -273.527
  O      788.936    -147.438    -274.706
  C      787.420    -146.941    -272.739
  O      787.076    -148.320    -272.621
  C      787.799    -146.381    -271.337
  N      787.109    -145.129    -271.048
  C      786.021    -145.229    -270.187
  O      785.621    -146.293    -269.712
  N      785.358    -144.055    -269.929
  C      785.649    -142.840    -270.469
  O      784.988    -141.837    -270.227
  C      786.790    -142.803    -271.390
  C      787.465    -143.929    -271.632
  O      791.750    -143.595    -271.128
  O      793.346    -144.238    -273.070
  H      786.143    -148.357    -272.320
  H      793.715    -144.893    -272.431
  H      784.568    -144.111    -269.303
  H      787.055    -141.845    -271.842
  H      788.317    -143.929    -272.313
  H      787.535    -147.104    -270.561
  H      786.565    -146.432    -273.191
  H      788.671    -145.641    -273.840
  H      789.969    -147.903    -272.234
  H      791.770    -146.183    -271.962
  H      791.607    -146.755    -273.646
  P      788.798    -146.826    -276.173
  C      786.862    -145.881    -277.643
  O      787.230    -146.651    -276.500
  O      789.684    -147.395    -277.229
  O      789.263    -145.299    -275.930
  H      789.725    -144.998    -276.737
  H      785.796    -145.856    -277.728
  H      787.279    -146.326    -278.522
  H      787.235    -144.884    -277.536

 6  7  8  9  10  11  12  13  14  15  16  26  31  32  33  34  35 0
 6-311+G(2d,p)
 ****
 36  37 0
 6-311+G(2d,p)
 ****
 1  2  3  4  5  17  18  19  20  21  22  23  24  25 0
 3-21G
 ****
 27  28  29  30  38  39  40  41  42  43  44  45 0
 3-21G
 ****


