%nproc=1
%NoSave
%Mem=1900MB
#P OB98/GEN NMR

erre ene a

0 1
  C        1.150    -110.951      31.805
  O        1.776    -109.770      31.353
  H        1.200    -110.979      32.896
  H        1.677    -111.824      31.412
  H        0.100    -110.983      31.502
  P        1.604    -109.334      29.820
  C        2.815    -109.931      27.622
  O        2.863    -109.950      29.041
  C        4.148    -109.436      27.056
  O        4.301    -108.029      27.415
  C        5.371    -110.195      27.611
  O        6.364    -110.273      26.583
  C        5.832    -109.260      28.711
  O        7.169    -109.494      29.074
  C        5.576    -107.900      28.067
  N        5.592    -106.827      29.057
  C        6.838    -106.347      29.442
  O        7.902    -106.782      29.005
  N        6.835    -105.386      30.415
  C        5.741    -104.951      31.103
  O        5.805    -104.145      32.020
  C        4.454    -105.533      30.689
  C        4.438    -106.426      29.696
  O        1.370    -107.881      29.576
  O        0.401    -110.244      29.284
  H        7.744    -109.428      28.289
  H       -0.001    -109.844      28.491
  H        7.730    -105.020      30.698
  H        3.568    -105.221      31.224
  H        3.511    -106.889      29.378
  H        6.325    -107.686      27.293
  H        5.214    -109.395      29.604
  H        5.127    -111.197      27.972
  H        4.115    -109.486      25.962
  H        2.007    -109.258      27.315
  H        2.600    -110.938      27.250
  P        6.927    -111.680      26.055
  C        8.588    -113.476      26.836
  O        8.257    -112.092      26.859
  O        7.068    -111.766      24.569
  O        5.847    -112.750      26.561
  H        5.637    -113.363      25.831
  H        9.484    -113.638      27.398
  H        8.740    -113.790      25.824
  H        7.789    -114.041      27.269

 6  7  8  9  10  11  12  13  14  15  16  26  31  32  33  34  35 0
 6-311+G(2d,p)
 ****
 36  37 0
 6-311+G(2d,p)
 ****
 1  2  3  4  5  17  18  19  20  21  22  23  24  25 0
 3-21G
 ****
 27  28  29  30  38  39  40  41  42  43  44  45 0
 3-21G
 ****


