%nproc=1
%NoSave
%Mem=1900MB
#P OB98/GEN NMR

erre ene a

0 1
  C     -160.214     220.030      58.642
  O     -159.788     221.290      58.168
  H     -160.347     220.093      59.727
  H     -159.463     219.267      58.428
  H     -161.170     219.752      58.190
  P     -159.516     221.464      56.595
  C     -157.769     220.408      54.998
  O     -158.141     220.668      56.343
  C     -156.250     220.320      54.878
  O     -155.644     221.631      54.912
  C     -155.560     219.553      56.004
  O     -155.736     218.148      55.928
  C     -154.123     219.969      55.760
  O     -153.597     219.256      54.626
  C     -154.298     221.473      55.447
  N     -154.112     222.319      56.626
  C     -152.792     222.546      57.034
  O     -151.851     222.042      56.423
  N     -152.567     223.318      58.150
  C     -153.571     223.801      58.815
  N     -153.291     224.549      59.917
  C     -154.978     223.567      58.433
  C     -155.174     222.834      57.341
  O     -159.552     222.865      56.073
  O     -160.580     220.495      55.895
  H     -152.705     219.615      54.455
  H     -160.462     220.573      54.915
  H     -155.779     223.969      59.037
  H     -156.182     222.614      56.999
  H     -153.599     221.795      54.664
  H     -153.463     219.761      56.607
  H     -155.871     219.932      56.985
  H     -156.021     219.884      53.896
  H     -152.318     224.687      60.155
  H     -158.167     221.213      54.372
  H     -154.009     224.901      60.537
  H     -158.196     219.456      54.667
  P     -156.210     217.399      57.273
  C     -155.106     217.261      59.637
  O     -154.928     217.342      58.232
  O     -156.410     215.889      56.794
  O     -157.436     217.969      57.918
  H     -157.354     215.706      56.616
  H     -154.150     217.232      60.117
  H     -155.652     216.373      59.877
  H     -155.650     218.117      59.978

 6  7  8  9  10  11  12  13  14  15  16  26  30  31  32  33  35 0
 6-311+G(2d,p)
 ****
 37  38 0
 6-311+G(2d,p)
 ****
 1  2  3  4  5  17  18  19  20  21  22  23  24  25 0
 3-21G
 ****
 27  28  29  34  36  39  40  41  42  43  44  45  46 0
 3-21G
 ****


