%nproc=1
%NoSave
%Mem=1900MB
#P OB98/GEN NMR

erre ene a

0 1
  C        5.070     102.719      50.016
  O        5.700     103.400      51.082
  H        4.652     101.784      50.395
  H        5.803     102.487      49.240
  H        4.263     103.325      49.598
  P        6.307     104.850      50.759
  C        8.314     105.736      49.377
  O        7.517     104.614      49.727
  C        9.780     105.334      49.235
  O       10.366     105.209      50.566
  C       10.002     103.997      48.510
  O       11.212     104.102      47.749
  C       10.246     103.027      49.654
  O       10.945     101.856      49.241
  C       11.024     103.929      50.611
  N       13.800     101.219      53.815
  C       14.069     101.636      52.525
  N       15.262     101.275      52.006
  N       13.240     102.344      51.807
  C       12.098     102.661      52.463
  C       11.710     102.308      53.733
  C       12.626     101.499      54.510
  O       12.436     101.084      55.648
  N       10.462     102.802      54.024
  C       10.101     103.454      52.933
  N       11.059     103.396      51.959
  O        7.046     105.232      52.127
  O        5.312     105.884      50.352
  H       10.350     101.340      48.659
  H        6.451     105.754      52.697
  H       14.467     100.663      54.320
  H        9.163     103.975      52.796
  H       12.067     104.067      50.297
  H        9.291     102.717      50.097
  H       15.969     100.771      52.517
  H        9.177     103.695      47.857
  H       15.496     101.608      51.078
  H       10.317     106.145      48.730
  H        8.224     106.495      50.163
  H        7.949     106.157      48.434
  P       11.144     103.780      46.181
  C       10.982     101.648      44.701
  O       10.910     102.205      46.005
  O       12.665     103.966      45.713
  O       10.219     104.665      45.412
  H       12.694     104.227      44.775
  H       10.804     100.594      44.753
  H       11.954     101.826      44.290
  H       10.242     102.104      44.077

 6  7  8  9  10  11  12  13  14  15  26  29  33  34 0
 6-311+G(2d,p)
 ****
 36  38  39  40  41 0
 6-311+G(2d,p)
 ****
 1  2  3  4  5  16  17  18  19  20  21  22  23  24  25 0
 3-21G
 ****
 27  28  30  31  32  35  37  42  43  44  45  46  47 0
 3-21G
 ****
 48  49 0
 3-21G
 ****


