%nproc=1
%NoSave
%Mem=1900MB
#P OB98/GEN NMR

erre ene a

0 1
  C      -37.826    -296.858       9.977
  O      -38.036    -296.862      11.379
  H      -38.197    -297.802       9.566
  H      -36.758    -296.773       9.757
  H      -38.372    -296.031       9.517
  P      -37.577    -295.543      12.172
  C      -35.214    -296.434      11.602
  O      -36.056    -295.842      12.583
  C      -34.131    -297.280      12.268
  O      -33.272    -297.876      11.279
  C      -33.209    -296.500      13.202
  O      -33.816    -296.311      14.469
  C      -32.021    -297.447      13.282
  O      -32.310    -298.511      14.212
  C      -31.942    -298.014      11.850
  N      -27.135    -298.064      10.047
  C      -27.730    -298.765      11.038
  N      -29.002    -298.668      11.491
  C      -29.677    -297.733      10.807
  C      -29.205    -296.941       9.771
  C      -27.870    -297.141       9.384
  N      -27.268    -296.432       8.365
  N      -30.192    -296.091       9.315
  C      -31.257    -296.401      10.027
  N      -30.988    -297.365      10.968
  O      -38.484    -295.098      13.267
  O      -37.406    -294.505      10.965
  H      -31.591    -299.164      14.144
  H      -37.024    -294.945      10.185
  H      -27.105    -299.501      11.534
  H      -32.244    -295.974       9.890
  H      -31.695    -299.081      11.848
  H      -31.117    -296.950      13.639
  H      -32.883    -295.559      12.748
  H      -34.628    -298.101      12.804
  H      -34.753    -295.656      10.979
  H      -26.270    -296.516       8.265
  H      -27.778    -295.663       7.958
  H      -35.844    -297.062      10.963
  P      -34.230    -294.838      14.962
  C      -31.738    -294.214      15.078
  O      -32.972    -294.268      15.781
  O      -35.527    -294.754      15.683
  O      -34.226    -293.954      13.631
  H      -34.963    -293.307      13.651
  H      -30.978    -293.820      15.721
  H      -31.843    -293.582      14.221
  H      -31.463    -295.199      14.763

 6  7  8  9  10  11  12  13  14  15  25  28  32  33  34  35 0
 6-311+G(2d,p)
 ****
 36  39  40 0
 6-311+G(2d,p)
 ****
 1  2  3  4  5  16  17  18  19  20  21  22  23  24 0
 3-21G
 ****
 26  27  29  30  31  37  38  41  42  43  44  45  46  47 0
 3-21G
 ****
 48 0
 3-21G
 ****


