%nproc=1
%NoSave
%Mem=1900MB
#P OB98/GEN NMR

erre ene a

0 1
  C      337.572    -217.930     119.250
  O      337.780    -219.149     119.936
  H      336.533    -217.887     118.918
  H      338.225    -217.874     118.374
  H      337.767    -217.082     119.914
  P      339.251    -219.400     120.528
  C      340.046    -220.944     118.591
  O      340.200    -219.703     119.270
  C      340.688    -220.859     117.210
  O      339.934    -219.948     116.375
  C      342.109    -220.311     117.225
  O      343.060    -221.282     117.622
  C      342.266    -219.861     115.780
  O      342.634    -220.957     114.929
  C      340.859    -219.365     115.430
  N      342.545    -215.047     113.290
  C      342.748    -216.345     112.982
  N      342.252    -217.440     113.595
  C      341.446    -217.088     114.612
  C      341.140    -215.807     115.040
  C      341.728    -214.749     114.328
  N      341.541    -213.429     114.654
  N      340.308    -215.851     116.141
  C      340.105    -217.132     116.368
  N      340.769    -217.918     115.467
  O      339.111    -220.821     121.253
  O      339.746    -218.344     121.461
  H      342.627    -220.606     114.015
  H      338.999    -220.684     122.212
  H      343.409    -216.532     112.137
  H      339.498    -217.537     117.165
  H      340.544    -219.685     114.427
  H      343.040    -219.100     115.689
  H      342.167    -219.429     117.874
  H      340.657    -221.850     116.745
  H      338.978    -221.165     118.479
  H      340.512    -221.734     119.186
  H      342.047    -212.723     114.144
  H      341.026    -213.199     115.499
  P      344.496    -220.764     118.107
  C      345.688    -221.664     115.968
  O      345.392    -220.546     116.795
  O      345.148    -222.049     118.806
  O      344.455    -219.592     119.029
  H      345.695    -221.771     119.567
  H      346.290    -221.347     115.142
  H      344.776    -222.088     115.602
  H      346.220    -222.398     116.537

 6  7  8  9  10  11  12  13  14  15  25  28  32  33  34  35 0
 6-311+G(2d,p)
 ****
 36  37  40 0
 6-311+G(2d,p)
 ****
 1  2  3  4  5  16  17  18  19  20  21  22  23  24 0
 3-21G
 ****
 26  27  29  30  31  38  39 41  42  43  44  45  46  47  48 0
 3-21G
 ****


