%nproc=1
%NoSave
%Mem=1900MB
#P OB98/GEN NMR

erre ene a

0 1
  C       33.961      35.299      90.139
  O       34.056      36.174      91.243
  P       33.127      37.474      91.368
  C       31.872      36.379      93.327
  O       32.619      37.504      92.892
  C       30.630      36.805      94.111
  O       31.027      37.318      95.413
  C       29.782      37.885      93.427
  O       28.420      37.610      93.777
  C       30.259      39.153      94.106
  O       29.340      40.231      93.968
  C       30.480      38.648      95.538
  N       31.353      39.534      96.301
  C       30.973      40.877      96.380
  O       29.989      41.280      95.758
  N       31.745      41.742      97.114
  C       32.855      41.322      97.635
  N       33.577      42.223      98.356
  C       33.357      39.944      97.470
  C       32.557      39.108      96.812
  O       32.048      37.586      90.345
  O       34.169      38.687      91.330
  H       29.142      40.347      93.013
  H       34.474      38.852      90.402
  H       34.314      39.656      97.875
  H       32.838      38.078      96.640
  H       29.523      38.562      96.069
  H       31.212      39.472      93.664
  H       29.904      37.916      92.342
  H       30.021      35.909      94.289
  H       33.189      43.153      98.457
  H       32.512      35.780      93.982
  H       34.409      41.978      98.870
  H       31.597      35.757      92.469
  P       27.313      37.324      92.655
  C       26.139      35.387      93.848
  O       26.031      36.728      93.405
  O       27.788      36.520      91.489
  O       26.824      38.781      92.198
  H       26.343      38.711      91.352
  H       25.346      35.187      94.572
  H       27.108      35.209      94.324
  H       26.024      34.710      92.999
  H       34.666      34.502      90.254
  H       34.174      35.836      89.239
  H       32.971      34.895      90.088

 3  4  5  6  7  8  9  10  11  12  13  23  27  28  29  30  32 0
 6-311+G(2d,p)
 ****
 34  35 0
 6-311+G(2d,p)
 ****
 1  2  14  15  16  17  18  19  20  21  22  24  25  26 0
 3-21G
 ****
 31  33  36  37  38  39  40  41  42  43  44  45  46 0
 3-21G
 ****


