%nproc=1
%NoSave
%Mem=1900MB
#P OB98/GEN NMR

erre ene a

0 1
  C     -110.047    -411.284      17.839
  O     -109.064    -412.309      17.649
  P     -107.640    -412.049      16.954
  C     -105.915    -413.402      18.310
  O     -106.714    -413.346      17.135
  C     -106.764    -413.620      19.566
  O     -107.668    -414.751      19.372
  C     -105.951    -413.899      20.844
  O     -106.621    -413.223      21.913
  C     -106.075    -415.409      20.973
  O     -105.779    -415.897      22.268
  C     -107.535    -415.587      20.542
  N     -107.938    -416.958      20.242
  C     -108.377    -417.752      21.309
  O     -108.371    -417.337      22.466
  N     -108.803    -419.032      21.039
  C     -108.786    -419.483      19.825
  N     -109.231    -420.753      19.628
  C     -108.313    -418.688      18.679
  C     -107.913    -417.449      18.957
  O     -106.981    -410.782      17.398
  O     -107.934    -412.005      15.380
  H     -107.346    -411.347      14.963
  H     -104.811    -415.868      22.386
  H     -108.325    -419.100      17.681
  H     -107.577    -416.789      18.162
  H     -108.195    -415.170      21.310
  H     -105.381    -415.881      20.272
  H     -104.918    -413.540      20.792
  H     -107.397    -412.735      19.705
  H     -109.557    -421.265      20.439
  H     -105.377    -412.455      18.408
  H     -109.269    -421.201      18.725
  H     -105.179    -414.206      18.203
  P     -105.985    -411.884      22.527
  C     -108.062    -410.517      23.304
  O     -106.981    -411.353      23.664
  O     -106.242    -410.827      21.346
  O     -104.531    -411.938      22.862
  H     -105.577    -410.114      21.408
  H     -108.957    -410.858      23.831
  H     -108.262    -410.537      22.229
  H     -107.839    -409.493      23.608
  H     -110.907    -411.700      18.321
  H     -110.330    -410.881      16.889
  H     -109.638    -410.506      18.449

 3  4  5  6  7  8  9  10  11  12  13  24  27  28  29  30  32 0
 6-311+G(2d,p)
 ****
 34  35 0
 6-311+G(2d,p)
 ****
 1  2  14  15  16  17  18  19  20  21  22  23  25  26 0
 3-21G
 ****
 31  33  36  37  38  39  40  41  42  43  44  45  46 0
 3-21G
 ****


