%nproc=1
%NoSave
%Mem=1900MB
#P OB98/GEN NMR

erre ene a

0 1
  C     -234.667    -108.888      34.171
  O     -234.461    -107.820      35.072
  H     -235.740    -108.994      33.997
  H     -234.289    -109.823      34.595
  H     -234.176    -108.686      33.216
  P     -232.958    -107.457      35.499
  C     -232.950    -108.930      37.631
  O     -232.457    -108.752      36.312
  C     -231.919    -109.660      38.485
  O     -231.501    -110.895      37.863
  C     -230.622    -108.894      38.721
  O     -230.749    -107.820      39.636
  C     -229.751    -110.013      39.261
  O     -230.113    -110.294      40.624
  C     -230.148    -111.175      38.321
  N     -229.240    -111.316      37.183
  C     -228.254    -112.303      37.287
  O     -228.166    -113.000      38.297
  N     -227.361    -112.458      36.254
  C     -227.432    -111.681      35.219
  N     -226.519    -111.874      34.228
  C     -228.442    -110.615      35.077
  C     -229.305    -110.490      36.081
  O     -232.772    -106.149      36.198
  O     -232.115    -107.583      34.145
  H     -231.069    -110.484      40.629
  H     -231.176    -107.358      34.352
  H     -228.441    -109.974      34.208
  H     -230.074    -109.725      36.053
  H     -230.181    -112.126      38.868
  H     -228.686    -109.773      39.252
  H     -230.195    -108.548      37.771
  H     -232.406    -109.926      39.433
  H     -225.838    -112.611      34.353
  H     -233.884    -109.497      37.573
  H     -226.452    -111.266      33.422
  H     -233.153    -107.958      38.090
  P     -229.641    -106.659      39.555
  C     -228.627    -107.406      41.844
  O     -228.415    -107.144      40.465
  O     -230.301    -105.468      40.391
  O     -229.252    -106.245      38.170
  H     -230.717    -104.815      39.794
  H     -227.707    -107.717      42.293
  H     -229.357    -108.181      41.952
  H     -228.977    -106.517      42.326

 6  7  8  9  10  11  12  13  14  15  16  26  30  31  32  33  35 0
 6-311+G(2d,p)
 ****
 37  38 0
 6-311+G(2d,p)
 ****
 1  2  3  4  5  17  18  19  20  21  22  23  24  25 0
 3-21G
 ****
 27  28  29  34  36  39  40  41  42  43  44  45  46 0
 3-21G
 ****


