%nproc=1
%NoSave
%Mem=1900MB
#P OB98/GEN NMR

erre ene a

0 1
  C     -265.313     606.937     329.468
  O     -265.350     605.672     330.099
  H     -265.052     606.818     328.409
  H     -266.301     607.395     329.533
  H     -264.579     607.579     329.959
  P     -263.999     604.806     330.072
  C     -264.851     604.078     332.415
  O     -264.118     603.709     331.251
  C     -264.715     602.992     333.473
  O     -265.564     601.872     333.103
  C     -263.279     602.463     333.671
  O     -262.868     602.630     335.035
  C     -263.389     600.968     333.393
  O     -262.617     600.173     334.284
  C     -264.885     600.689     333.530
  N     -264.059     595.724     332.720
  C     -263.813     596.504     333.799
  N     -264.158     597.795     333.989
  C     -264.847     598.279     332.939
  C     -265.180     597.590     331.776
  C     -264.737     596.256     331.681
  N     -264.938     595.477     330.562
  N     -265.872     598.411     330.906
  C     -265.915     599.579     331.511
  N     -265.287     599.556     332.737
  O     -262.895     605.831     330.612
  O     -263.624     604.254     328.741
  H     -261.681     600.378     334.108
  H     -262.114     605.814     330.038
  H     -263.271     596.038     334.619
  H     -266.335     600.496     331.100
  H     -265.168     600.489     334.580
  H     -263.048     600.774     332.360
  H     -262.557     602.929     332.993
  H     -265.106     603.388     334.428
  H     -265.907     604.198     332.157
  H     -264.486     594.578     330.539
  H     -265.351     595.900     329.747
  H     -264.479     605.043     332.781
  P     -261.676     603.690     335.298
  C     -262.282     603.670     337.836
  O     -261.270     603.574     336.837
  O     -262.438     605.112     335.234
  O     -260.560     603.608     334.304
  H     -261.826     605.814     334.960
  H     -261.838     603.572     338.804
  H     -263.000     602.890     337.692
  H     -262.768     604.620     337.761

 6  7  8  9  10  11  12  13  14  15  25  28  32  33  34  35 0
 6-311+G(2d,p)
 ****
 36  39  40 0
 6-311+G(2d,p)
 ****
 1  2  3  4  5  16  17  18  19  20  21  22  23  24 0
 3-21G
 ****
 26  27  29  30  31  37  38  41  42  43  44  45  46  47  48 0
 3-21G
 ****


