%nproc=1
%NoSave
%Mem=1900MB
#P OB98/GEN NMR

erre ene a

0 1
  C       70.034      40.873     176.211
  O       70.576      39.850     175.391
  P       71.170      40.184     173.946
  C       70.124      40.648     171.581
  O       69.978      40.129     172.884
  C       68.818      40.419     170.807
  O       68.574      39.007     170.648
  C       67.622      41.026     171.535
  O       67.346      42.330     171.047
  C       66.517      40.026     171.247
  O       65.953      40.261     169.942
  C       67.296      38.688     171.261
  N       67.560      38.052     172.566
  C       66.501      37.532     173.306
  O       65.334      37.540     172.926
  N       66.832      37.014     174.534
  C       68.094      36.930     175.051
  O       68.345      36.694     176.227
  C       69.181      37.240     174.118
  C       68.871      37.799     172.948
  O       72.033      38.882     173.600
  O       71.982      41.436     173.858
  H       65.473      41.106     169.985
  H       72.978      39.037     173.785
  H       66.054      36.764     175.134
  H       70.199      37.054     174.436
  H       69.663      38.073     172.256
  H       66.800      37.941     170.631
  H       65.697      40.130     171.954
  H       67.804      41.043     172.619
  H       68.918      40.860     169.806
  H       70.960      40.155     171.072
  H       70.356      41.717     171.624
  P       66.807      43.453     172.051
  C       64.763      43.589     173.592
  O       65.318      42.996     172.433
  O       66.944      44.862     171.576
  O       67.656      43.189     173.386
  H       68.415      43.808     173.424
  H       63.701      43.338     173.640
  H       64.871      44.678     173.557
  H       65.260      43.194     174.482
  H       69.691      40.448     177.131
  H       69.214      41.338     175.706
  H       70.788      41.604     176.414

 3  4  5  6  7  8  9  10  11  12  13  23  28  29  30  31  32 0
 6-311+G(2d,p)
 ****
 33  34 0
 6-311+G(2d,p)
 ****
 1  2  14  15  16  17  18  19  20  21  22  24  25  26  27 0
 3-21G
 ****
 35  36  37  38  39  40  41  42  43  44  45 0
 3-21G
 ****


