%nproc=1
%NoSave
%Mem=1900MB
#P OB98/GEN NMR

erre ene a

0 1
  C      334.933     584.182    -232.941
  O      335.397     583.534    -234.113
  H      334.317     583.477    -232.371
  H      334.314     585.034    -233.223
  H      335.773     584.505    -232.319
  P      336.555     584.263    -234.938
  C      337.027     582.581    -236.851
  O      337.454     583.104    -235.611
  C      337.760     581.269    -237.155
  O      339.162     581.566    -237.434
  C      337.724     580.245    -235.994
  O      337.587     578.943    -236.535
  C      339.093     580.402    -235.350
  O      339.501     579.216    -234.658
  C      339.951     580.744    -236.557
  N      344.137     580.390    -233.746
  C      343.134     579.458    -233.994
  N      343.282     578.253    -233.401
  N      342.093     579.690    -234.765
  C      342.122     580.919    -235.323
  C      343.038     581.936    -235.155
  C      344.167     581.669    -234.279
  O      345.064     582.474    -234.005
  N      342.689     583.050    -235.871
  C      341.546     582.722    -236.470
  N      341.166     581.425    -236.166
  O      337.502     584.853    -233.791
  O      336.096     585.336    -235.876
  H      340.406     579.384    -234.297
  H      337.498     585.830    -233.832
  H      344.900     580.167    -233.148
  H      340.973     583.370    -237.109
  H      340.268     579.848    -237.120
  H      339.078     581.233    -234.634
  H      344.074     577.988    -232.825
  H      336.909     580.440    -235.286
  H      342.582     577.542    -233.589
  H      337.342     580.840    -238.071
  H      337.235     583.295    -237.642
  H      335.938     582.398    -236.813
  P      336.090     578.448    -236.877
  C      335.852     577.197    -234.624
  O      335.799     577.103    -236.027
  O      336.209     577.930    -238.388
  O      335.060     579.515    -236.744
  H      335.760     578.545    -238.985
  H      335.641     576.240    -234.194
  H      335.126     577.907    -234.286
  H      336.829     577.515    -234.324

 6  7  8  9  10  11  12  13  14  15  26  29  33  34 0
 6-311+G(2d,p)
 ****
 36  38  39  40  41 0
 6-311+G(2d,p)
 ****
 1  2  3  4  5  16  17  18  19  20  21  22  23  24  25 0
 3-21G
 ****
 27  28  30  31  32  35  37  42  43  44  45  46  47 0
 3-21G
 ****
 48  49 0
 3-21G
 ****


