%nproc=1
%NoSave
%Mem=1900MB
#P OB98/GEN NMR

erre ene a

0 1
  C     -357.865     844.525    -143.887
  O     -359.184     844.614    -144.424
  P     -359.355     844.854    -145.998
  C     -359.281     846.907    -147.614
  O     -359.107     846.407    -146.285
  C     -358.796     848.352    -147.706
  O     -359.683     849.208    -146.933
  C     -357.383     848.584    -147.200
  O     -356.785     849.630    -147.993
  C     -357.602     849.106    -145.786
  O     -356.492     849.802    -145.251
  C     -358.847     849.967    -146.022
  N     -359.554     850.308    -144.777
  C     -359.619     851.638    -144.428
  O     -359.126     852.570    -145.083
  N     -360.230     851.926    -143.230
  C     -360.686     850.996    -142.345
  O     -361.113     851.293    -141.218
  C     -360.594     849.594    -142.766
  C     -360.047     849.301    -143.957
  O     -360.937     844.674    -146.242
  O     -358.556     843.927    -146.866
  H     -355.791     849.156    -145.089
  H     -361.124     843.792    -146.588
  H     -360.299     852.889    -142.953
  H     -360.987     848.827    -142.088
  H     -359.944     848.280    -144.279
  H     -358.565     850.886    -146.547
  H     -357.825     848.261    -145.116
  H     -356.739     847.694    -147.219
  H     -358.894     848.663    -148.753
  H     -360.333     846.849    -147.870
  H     -358.716     846.264    -148.317
  P     -355.182     849.795    -147.953
  C     -353.661     851.929    -147.877
  O     -354.886     851.304    -147.514
  O     -354.839     849.778    -149.510
  O     -354.484     848.705    -147.175
  H     -355.465     850.304    -150.049
  H     -353.325     851.592    -148.861
  H     -352.908     851.715    -147.138
  H     -353.830     853.003    -147.917
  H     -357.920     844.365    -142.830
  H     -357.338     845.435    -144.083
  H     -357.348     843.708    -144.345

 3  4  5  6  7  8  9  10  11  12  13  23  28  29  30  31  32 0
 6-311+G(2d,p)
 ****
 33  34 0
 6-311+G(2d,p)
 ****
 1  2  14  15  16  17  18  19  20  21  22  24  25  26 0
 3-21G
 ****
 27  35  36  37  38  39  40  41  42  43  44  45 0
 3-21G
 ****


