%nproc=1
%NoSave
%Mem=1900MB
#P OB98/GEN NMR

erre ene a

0 1
  C       -6.604    -224.127    -458.128
  O       -5.421    -224.479    -458.829
  P       -5.490    -225.257    -460.231
  C       -3.073    -224.396    -460.537
  O       -3.961    -225.501    -460.646
  C       -1.677    -224.807    -460.999
  O       -1.770    -225.511    -462.254
  C       -0.727    -223.644    -461.246
  O       -0.238    -223.113    -460.022
  C        0.316    -224.307    -462.136
  O        1.235    -225.075    -461.343
  C       -0.553    -225.252    -462.991
  N       -0.844    -224.712    -464.314
  C        0.101    -224.963    -465.313
  O        1.117    -225.615    -465.075
  N       -0.142    -224.496    -466.581
  C       -1.220    -223.818    -466.827
  N       -1.440    -223.439    -468.115
  C       -2.215    -223.483    -465.791
  C       -1.970    -223.962    -464.574
  O       -6.321    -224.593    -461.277
  O       -5.983    -226.725    -459.851
  H        1.949    -225.366    -461.945
  H       -6.968    -226.822    -459.837
  H       -3.093    -222.904    -466.041
  H       -2.661    -223.778    -463.763
  H       -0.056    -226.222    -463.108
  H        0.900    -223.596    -462.730
  H       -1.234    -222.847    -461.803
  H       -1.256    -225.493    -460.250
  H       -0.827    -223.837    -468.816
  H       -3.027    -224.089    -459.487
  H       -2.363    -223.172    -468.435
  H       -3.457    -223.564    -461.133
  P        0.093    -221.545    -459.973
  C       -0.210    -221.852    -457.417
  O        0.525    -221.236    -458.458
  O       -1.344    -220.862    -460.127
  O        1.054    -221.086    -461.019
  H       -1.474    -220.547    -461.041
  H        0.345    -221.734    -456.483
  H       -0.345    -222.920    -457.614
  H       -1.183    -221.365    -457.309
  H       -6.344    -223.618    -457.223
  H       -7.156    -225.013    -457.893
  H       -7.203    -223.485    -458.739

 3  4  5  6  7  8  9  10  11  12  13  23  27  28  29  30  32 0
 6-311+G(2d,p)
 ****
 34  35 0
 6-311+G(2d,p)
 ****
 1  2  14  15  16  17  18  19  20  21  22  24  25  26 0
 3-21G
 ****
 31  33  36  37  38  39  40  41  42  43  44  45  46 0
 3-21G
 ****


