%nproc=1
%NoSave
%Mem=1900MB
#P OB98/GEN NMR

erre ene a

0 1
  C      -19.652    -324.170     -89.237
  O      -18.905    -325.151     -88.506
  P      -18.474    -326.489     -89.273
  C      -20.408    -328.021     -88.449
  O      -19.017    -327.743     -88.431
  C      -20.702    -329.304     -87.666
  O      -20.063    -330.452     -88.262
  C      -20.222    -329.261     -86.221
  O      -21.153    -328.595     -85.374
  C      -20.179    -330.743     -85.880
  O      -21.507    -331.212     -85.570
  C      -19.691    -331.363     -87.196
  N      -16.034    -334.847     -87.535
  C      -17.408    -334.992     -87.559
  N      -17.877    -336.249     -87.704
  N      -18.243    -333.995     -87.455
  C      -17.635    -332.793     -87.333
  C      -16.288    -332.517     -87.294
  C      -15.370    -333.633     -87.396
  O      -14.144    -333.567     -87.371
  N      -16.053    -331.179     -87.156
  C      -17.253    -330.632     -87.130
  N      -18.250    -331.576     -87.216
  O      -16.894    -326.550     -89.016
  O      -18.796    -326.493     -90.730
  H      -22.050    -331.068     -86.369
  H      -16.458    -327.027     -89.745
  H      -15.433    -335.648     -87.617
  H      -17.456    -329.573     -87.051
  H      -20.161    -332.329     -87.406
  H      -19.558    -330.952     -85.007
  H      -17.288    -337.059     -87.843
  H      -19.215    -328.827     -86.150
  H      -18.879    -336.373     -87.757
  H      -21.788    -329.468     -87.676
  H      -20.763    -328.126     -89.478
  H      -20.948    -327.166     -88.035
  P      -20.817    -327.089     -84.932
  C      -19.419    -327.978     -82.934
  O      -20.481    -327.156     -83.368
  O      -22.251    -326.379     -84.992
  O      -19.817    -326.395     -85.792
  H      -22.143    -325.439     -85.230
  H      -19.229    -327.774     -81.876
  H      -18.509    -327.771     -83.500
  H      -19.690    -329.034     -83.042
  H      -19.867    -323.338     -88.600
  H      -20.569    -324.602     -89.580
  H      -19.078    -323.838     -90.077

 3  4  5  6  7  8  9  10  11  12  23  26  30  31 0
 6-311+G(2d,p)
 ****
 33  35  36  37  38 0
 6-311+G(2d,p)
 ****
 1  2  13  14  15  16  17  18  19  20  21  22  24  25 0
 3-21G
 ****
 27  28  29  32  34  39  40  41  42  43  44  45  46  47  48  49 0
 3-21G
 ****


