%nproc=1
%NoSave
%Mem=1900MB
#P OB98/GEN NMR

erre ene a

0 1
  C      236.775    -459.254    -278.788
  O      236.692    -458.256    -279.807
  P      237.067    -458.651    -281.311
  C      234.915    -459.755    -282.192
  O      236.237    -459.970    -281.705
  C      234.816    -460.132    -283.676
  O      235.003    -461.549    -283.880
  C      233.464    -459.811    -284.290
  O      233.333    -458.416    -284.499
  C      233.495    -460.663    -285.539
  O      234.212    -460.009    -286.594
  C      234.267    -461.917    -285.068
  N      233.406    -463.072    -284.832
  C      232.638    -463.495    -285.927
  O      232.684    -462.885    -286.992
  N      231.835    -464.593    -285.768
  C      231.792    -465.215    -284.630
  N      230.976    -466.294    -284.535
  C      232.582    -464.784    -283.460
  C      233.353    -463.714    -283.622
  O      238.524    -458.699    -281.623
  O      236.339    -457.509    -282.171
  H      234.266    -460.647    -287.336
  H      236.849    -457.351    -282.993
  H      232.506    -465.336    -282.526
  H      233.956    -463.340    -282.815
  H      235.016    -462.210    -285.812
  H      232.485    -460.871    -285.926
  H      232.658    -460.160    -283.622
  H      235.608    -459.595    -284.216
  H      230.444    -466.549    -285.362
  H      234.639    -458.708    -282.055
  H      230.907    -466.874    -283.705
  H      234.216    -460.350    -281.588
  P      232.035    -457.890    -285.289
  C      230.499    -457.606    -283.214
  O      230.749    -458.305    -284.419
  O      231.957    -458.886    -286.544
  O      232.079    -456.464    -285.731
  H      231.604    -458.408    -287.320
  H      229.452    -457.764    -282.927
  H      230.660    -456.531    -283.345
  H      231.147    -457.979    -282.422
  H      236.493    -458.828    -277.848
  H      237.779    -459.619    -278.727
  H      236.115    -460.062    -279.026

 3  4  5  6  7  8  9  10  11  12  13  23  27  28  29  30  32 0
 6-311+G(2d,p)
 ****
 34  35 0
 6-311+G(2d,p)
 ****
 1  2  14  15  16  17  18  19  20  21  22  24  25  26 0
 3-21G
 ****
 31  33  36  37  38  39  40  41  42  43  44  45  46 0
 3-21G
 ****


