%nproc=1
%NoSave
%Mem=1900MB
#P OB98/GEN NMR

erre ene a

0 1
  C     -112.664    -381.180       7.164
  O     -112.567    -381.095       8.571
  H     -113.491    -381.847       6.910
  H     -111.740    -381.586       6.745
  H     -112.863    -380.194       6.736
  P     -111.421    -380.135       9.170
  C     -109.655    -381.997       9.584
  O     -110.036    -380.868       8.810
  C     -108.309    -381.739      10.277
  O     -108.215    -382.571      11.456
  C     -107.100    -382.056       9.385
  O     -106.126    -381.023       9.538
  C     -106.580    -383.377       9.918
  O     -105.186    -383.551       9.659
  C     -106.973    -383.301      11.400
  N     -107.110    -384.627      11.998
  C     -105.928    -385.355      12.199
  O     -104.840    -384.875      11.868
  N     -106.012    -386.621      12.719
  C     -107.171    -387.143      12.959
  N     -107.188    -388.413      13.453
  C     -108.443    -386.436      12.712
  C     -108.337    -385.194      12.242
  O     -111.566    -380.350      10.746
  O     -111.500    -378.708       8.741
  H     -104.907    -384.400      10.071
  H     -111.069    -379.662      11.252
  H     -109.387    -386.922      12.911
  H     -109.221    -384.601      12.030
  H     -106.219    -382.739      11.972
  H     -107.115    -384.201       9.436
  H     -107.359    -382.141       8.329
  H     -108.288    -380.697      10.620
  H     -106.295    -388.874      13.595
  H     -109.569    -382.870       8.925
  H     -108.036    -388.930      13.644
  H     -110.424    -382.187      10.344
  P     -106.572    -379.555       9.057
  C     -105.045    -379.564       6.957
  O     -106.374    -379.484       7.465
  O     -105.417    -378.602       9.637
  O     -107.928    -379.157       9.535
  H     -105.711    -378.173      10.460
  H     -105.067    -379.504       5.889
  H     -104.605    -380.494       7.253
  H     -104.464    -378.755       7.348

 6  7  8  9  10  11  12  13  14  15  16  26  30  31  32  33  35 0
 6-311+G(2d,p)
 ****
 37  38 0
 6-311+G(2d,p)
 ****
 1  2  3  4  5  17  18  19  20  21  22  23  24  25 0
 3-21G
 ****
 27  28  29  34  36  39  40  41  42  43  44  45  46 0
 3-21G
 ****


