%nproc=1
%NoSave
%Mem=1900MB
#P OB98/GEN NMR

erre ene a

0 1
  C      -37.655    -645.755     930.533
  O      -38.521    -644.704     930.079
  P      -39.224    -644.888     928.653
  C      -41.725    -645.148     929.345
  O      -40.546    -645.774     928.842
  C      -42.969    -645.772     928.706
  O      -43.011    -645.518     927.292
  C      -43.012    -647.281     928.844
  O      -43.427    -647.656     930.145
  C      -43.998    -647.676     927.751
  O      -45.351    -647.698     928.248
  C      -43.822    -646.554     926.698
  N      -43.238    -647.039     925.457
  C      -43.866    -648.146     924.880
  O      -44.846    -648.666     925.432
  N      -43.355    -648.649     923.702
  C      -42.302    -648.115     923.170
  N      -41.841    -648.661     922.019
  C      -41.589    -646.963     923.773
  C      -42.111    -646.482     924.905
  O      -38.226    -645.878     927.878
  O      -39.421    -643.612     927.898
  H      -45.910    -647.935     927.480
  H      -38.230    -645.680     926.924
  H      -40.707    -646.554     923.301
  H      -41.651    -645.637     925.411
  H      -44.787    -646.095     926.461
  H      -43.799    -648.677     927.361
  H      -42.023    -647.709     928.613
  H      -43.862    -645.327     929.172
  H      -42.352    -649.448     921.641
  H      -41.700    -644.076     929.136
  H      -41.016    -648.323     921.532
  H      -41.746    -645.245     930.433
  P      -42.417    -648.537     931.032
  C      -42.348    -646.710     932.833
  O      -41.588    -647.484     931.905
  O      -41.322    -648.983     929.938
  O      -42.994    -649.705     931.754
  H      -40.693    -649.622     930.331
  H      -41.649    -646.193     933.497
  H      -43.005    -647.358     933.425
  H      -42.941    -645.963     932.293
  H      -37.258    -645.500     931.493
  H      -36.852    -645.881     929.837
  H      -38.210    -646.667     930.607

 3  4  5  6  7  8  9  10  11  12  13  21  23  27  28  29  30  32 0
 6-311+G(2d,p)
 ****
 34  35 0
 6-311+G(2d,p)
 ****
 1  2  14  15  16  17  18  19  20  22  24  25  26 0
 3-21G
 ****
 31  33  36  37  38  39  40  41  42  43  44  45  46 0
 3-21G
 ****


