%nproc=1
%NoSave
%Mem=1900MB
#P OB98/GEN NMR

erre ene a

0 1
  C     -624.426     813.960    -205.850
  O     -625.664     814.584    -205.592
  H     -623.630     814.445    -205.273
  H     -624.486     812.910    -205.532
  H     -624.195     813.998    -206.912
  P     -625.773     816.148    -205.940
  C     -625.759     817.095    -203.523
  O     -625.046     816.950    -204.750
  C     -625.153     818.221    -202.703
  O     -625.399     819.478    -203.411
  C     -625.732     818.373    -201.271
  O     -624.680     818.271    -200.309
  C     -626.298     819.776    -201.225
  O     -626.037     820.446    -199.994
  C     -625.606     820.486    -202.392
  N     -627.697     824.965    -201.197
  C     -626.658     824.294    -200.659
  N     -626.080     823.154    -201.096
  C     -626.676     822.725    -202.222
  C     -627.724     823.309    -202.898
  C     -628.267     824.483    -202.333
  N     -629.366     825.131    -202.851
  N     -628.077     822.560    -204.013
  C     -627.265     821.522    -203.986
  N     -626.416     821.563    -202.912
  O     -627.326     816.469    -205.717
  O     -625.323     816.519    -207.315
  H     -625.060     820.497    -199.899
  H     -627.668     816.967    -206.486
  H     -626.236     824.727    -199.759
  H     -627.272     820.698    -204.687
  H     -624.626     820.884    -202.111
  H     -627.378     819.731    -201.379
  H     -626.502     817.623    -201.062
  H     -624.066     818.093    -202.661
  H     -625.686     816.164    -202.951
  H     -629.743     825.894    -202.316
  H     -629.852     824.719    -203.640
  H     -626.816     817.278    -203.740
  P     -624.468     816.831    -199.600
  C     -626.271     817.410    -197.803
  O     -625.824     816.493    -198.813
  O     -623.427     817.143    -198.439
  O     -623.980     815.769    -200.534
  H     -622.903     816.349    -198.229
  H     -627.182     817.050    -197.372
  H     -626.440     818.370    -198.243
  H     -625.524     817.493    -197.041

 6  7  8  9  10  11  12  13  14  15  25  28  32  33  34  35 0
 6-311+G(2d,p)
 ****
 36  39  40 0
 6-311+G(2d,p)
 ****
 1  2  3  4  5  16  17  18  19  20  21  22  23  24 0
 3-21G
 ****
 26  27  29  30  31  37  38  41  42  43  44  45  46  47  48 0
 3-21G
 ****


