%nproc=1
%NoSave
%Mem=1900MB
#P OB98/GEN NMR

erre ene a

0 1
  C       16.538     -16.757     -86.233
  O       17.381     -17.358     -85.235
  P       16.801     -17.581     -83.753
  C       18.815     -17.018     -82.181
  O       18.009     -18.015     -82.790
  C       20.040     -17.661     -81.522
  O       19.633     -18.559     -80.464
  C       20.884     -18.510     -82.461
  O       21.694     -17.715     -83.311
  C       21.684     -19.348     -81.471
  O       22.827     -18.621     -80.987
  C       20.660     -19.568     -80.340
  N       20.091     -20.912     -80.349
  C       20.969     -21.957     -80.081
  O       22.174     -21.796     -79.902
  N       20.416     -23.209     -80.060
  C       19.115     -23.517     -80.342
  O       18.684     -24.663     -80.326
  C       18.256     -22.380     -80.699
  C       18.776     -21.151     -80.691
  O       15.997     -18.960     -83.914
  O       15.906     -16.504     -83.237
  H       23.201     -19.146     -80.252
  H       15.266     -18.988     -83.268
  H       21.029     -23.978     -79.838
  H       17.223     -22.584     -80.951
  H       18.152     -20.301     -80.951
  H       21.132     -19.396     -79.365
  H       22.060     -20.275     -81.915
  H       20.238     -19.172     -83.049
  H       20.646     -16.861     -81.075
  H       18.231     -16.498     -81.417
  H       19.123     -16.294     -82.941
  P       21.588     -18.006     -84.887
  C       24.090     -17.283     -85.101
  O       22.762     -17.145     -85.554
  O       20.239     -17.224     -85.250
  O       21.570     -19.462     -85.213
  H       20.121     -16.425     -84.707
  H       24.300     -18.305     -84.773
  H       24.263     -16.592     -84.271
  H       24.770     -17.031     -85.920
  H       17.075     -16.682     -87.156
  H       16.245     -15.780     -85.911
  H       15.667     -17.362     -86.375

 3  4  5  6  7  8  9  10  11  12  13  23  28  29  30  31  32 0
 6-311+G(2d,p)
 ****
 33  34 0
 6-311+G(2d,p)
 ****
 1  2  14  15  16  17  18  19  20  21  22  24  25  26 0
 3-21G
 ****
 27  35  36  37  38  39  40  41  42  43  44  45 0
 3-21G
 ****


