%nproc=1
%NoSave
%Mem=1900MB
#P OB98/GEN NMR

erre ene a

0 1
  C      247.043     548.812     515.966
  O      246.594     548.550     517.278
  H      247.996     549.347     516.020
  H      246.318     549.449     515.442
  H      247.196     547.892     515.401
  P      245.379     547.533     517.486
  C      243.842     547.852     519.535
  O      245.120     547.452     519.072
  C      243.860     548.118     521.041
  O      244.354     546.924     521.724
  C      244.761     549.289     521.456
  O      244.185     549.891     522.626
  C      246.046     548.574     521.810
  O      246.901     549.389     522.591
  C      245.502     547.319     522.492
  N      246.496     546.244     522.580
  C      246.830     545.815     523.859
  O      246.357     546.292     524.887
  N      247.764     544.816     523.926
  C      248.439     544.274     522.872
  O      249.292     543.406     522.990
  C      248.077     544.808     521.539
  C      247.139     545.757     521.462
  O      245.510     546.210     516.809
  O      244.092     548.335     516.966
  H      247.122     550.212     522.108
  H      243.427     547.717     516.612
  H      248.010     544.474     524.843
  H      248.598     544.406     520.681
  H      246.857     546.170     520.498
  H      245.171     547.544     523.513
  H      246.598     548.305     520.903
  H      244.884     550.037     520.667
  H      242.826     548.275     521.388
  H      243.128     547.038     519.305
  H      243.523     548.754     519.002
  P      243.755     551.432     522.677
  C      244.430     551.662     525.156
  O      243.392     551.817     524.187
  O      242.715     551.811     521.678
  O      245.121     552.241     522.412
  H      244.920     553.096     521.993
  H      244.064     551.950     526.119
  H      245.261     552.281     524.890
  H      244.742     550.639     525.184

 6  7  8  9  10  11  12  13  14  15  16  26  31  32  33  34  35 0
 6-311+G(2d,p)
 ****
 36  37 0
 6-311+G(2d,p)
 ****
 1  2  3  4  5  17  18  19  20  21  22  23  24  25 0
 3-21G
 ****
 27  28  29  30  38  39  40  41  42  43  44  45 0
 3-21G
 ****


