%nproc=1
%NoSave
%Mem=1900MB
#P OB98/GEN NMR

erre ene a

0 1
  C      184.246      71.463    -646.305
  O      183.851      70.727    -647.450
  H      185.150      71.007    -645.893
  H      183.456      71.434    -645.553
  H      184.461      72.499    -646.581
  P      182.543      71.247    -648.226
  C      182.054      68.857    -649.123
  O      181.580      69.977    -648.390
  C      181.305      67.600    -648.690
  O      181.607      67.309    -647.299
  C      179.791      67.730    -648.754
  O      179.294      67.587    -650.074
  C      179.355      66.614    -647.820
  O      179.335      65.350    -648.491
  C      180.453      66.630    -646.748
  N      179.030      65.919    -641.896
  C      179.496      65.065    -642.835
  N      179.864      65.341    -644.104
  C      179.748      66.651    -644.362
  C      179.288      67.639    -643.502
  C      178.922      67.236    -642.208
  N      178.437      68.093    -641.259
  N      179.274      68.862    -644.139
  C      179.713      68.623    -645.354
  N      180.017      67.300    -645.535
  O      183.086      71.509    -649.707
  O      181.901      72.463    -647.640
  H      179.116      64.680    -647.809
  H      183.252      72.463    -649.828
  H      179.566      64.023    -642.531
  H      179.827      69.364    -646.144
  H      180.772      65.622    -646.466
  H      178.354      66.802    -647.430
  H      179.476      68.695    -648.329
  H      181.652      66.752    -649.299
  H      183.126      68.720    -648.932
  H      181.912      69.044    -650.194
  H      178.125      67.721    -640.377
  H      178.240      69.053    -641.521
  P      177.983      68.421    -650.478
  C      177.098      66.502    -652.006
  O      176.854      67.361    -650.899
  O      178.383      69.128    -651.860
  O      177.542      69.410    -649.447
  H      177.968      70.011    -651.907
  H      176.254      65.861    -652.153
  H      177.967      65.908    -651.812
  H      177.257      67.090    -652.886

 6  7  8  9  10  11  12  13  14  15  25  28  32  33  34  35 0
 6-311+G(2d,p)
 ****
 36  37  40 0
 6-311+G(2d,p)
 ****
 1  2  3  4  5  16  17  18  19  20  21  22  23  24 0
 3-21G
 ****
 26  27  29  30  31  38  39 41  42  43  44  45  46  47  48 0
 3-21G
 ****


