%nproc=1
%NoSave
%Mem=1900MB
#P OB98/GEN NMR

erre ene a

0 1
  C     -349.599     280.126     439.554
  O     -350.016     281.486     439.720
  P     -350.386     282.288     438.378
  C     -348.252     283.765     438.145
  O     -349.642     283.720     438.438
  C     -347.695     285.147     438.495
  O     -347.886     285.473     439.888
  C     -346.192     285.261     438.265
  O     -345.890     285.372     436.880
  C     -345.875     286.516     439.094
  O     -346.224     287.700     438.349
  C     -346.813     286.348     440.296
  N     -343.272     287.197     443.883
  C     -343.698     287.954     442.855
  N     -344.646     287.658     441.939
  C     -345.176     286.434     442.179
  C     -344.850     285.561     443.199
  C     -343.835     285.985     444.080
  N     -343.395     285.210     445.142
  N     -345.606     284.418     443.125
  C     -346.366     284.584     442.062
  N     -346.153     285.803     441.467
  O     -351.930     282.655     438.577
  O     -350.149     281.508     437.127
  H     -346.222     288.455     438.982
  H     -352.474     282.117     437.980
  H     -343.210     288.920     442.737
  H     -347.085     283.865     441.689
  H     -347.261     287.301     440.593
  H     -344.808     286.590     439.350
  H     -345.671     284.396     438.693
  H     -348.221     285.900     437.885
  H     -348.075     283.553     437.090
  H     -342.609     285.554     445.678
  H     -343.746     284.271     445.241
  H     -347.754     282.986     438.726
  P     -344.790     284.373     436.269
  C     -343.275     286.135     435.185
  O     -344.261     285.141     434.956
  O     -345.712     283.222     435.655
  O     -343.746     283.916     437.239
  H     -346.474     283.589     435.152
  H     -342.982     286.552     434.212
  H     -342.394     285.700     435.661
  H     -343.680     286.934     435.809
  H     -349.381     279.700     440.511
  H     -348.722     280.094     438.942
  H     -350.382     279.568     439.085

 3  4  5  6  7  8  9  10  11  12  22  25  29  30  31  32 0
 6-311+G(2d,p)
 ****
 33  36  37 0
 6-311+G(2d,p)
 ****
 1  2  13  14  15  16  17  18  19  20  21  23  24  26 0
 3-21G
 ****
 27  28  34  35  38  39  40  41  42  43  44  45  46  47  48 0
 3-21G
 ****


