%nproc=1
%NoSave
%Mem=1900MB
#P OB98/GEN NMR

erre ene a

0 1
  C        2.543    -132.311      85.982
  O        1.747    -132.695      84.878
  H        3.592    -132.500      85.737
  H        2.280    -132.905      86.861
  H        2.420    -131.247      86.198
  P        0.167    -132.431      84.935
  C        0.131    -130.145      83.758
  O       -0.195    -131.523      83.659
  C       -0.999    -129.284      83.197
  O       -0.770    -127.905      83.584
  C       -1.107    -129.332      81.669
  O       -2.489    -129.302      81.312
  C       -0.440    -128.044      81.228
  O       -0.923    -127.587      79.966
  C       -0.772    -127.105      82.386
  N        0.390    -122.481      80.716
  C       -0.717    -123.268      80.463
  N       -1.644    -122.763      79.622
  N       -0.898    -124.451      80.989
  C        0.102    -124.827      81.824
  C        1.246    -124.141      82.154
  C        1.442    -122.837      81.555
  O        2.406    -122.100      81.729
  N        2.032    -124.867      83.014
  C        1.363    -125.991      83.201
  N        0.191    -126.020      82.492
  O       -0.349    -131.903      86.234
  O       -0.476    -133.848      84.571
  H       -0.352    -126.836      79.695
  H       -0.772    -134.310      85.377
  H        0.484    -121.582      80.277
  H        1.684    -126.812      83.827
  H       -1.761    -126.643      82.278
  H        0.644    -128.199      81.145
  H       -1.580    -121.853      79.193
  H       -0.629    -130.215      81.235
  H       -2.475    -123.313      79.441
  H       -1.939    -129.594      83.668
  H        1.049    -129.967      83.188
  H        0.312    -129.889      84.808
  P       -3.060    -130.439      80.336
  C       -3.125    -132.636      81.682
  O       -3.863    -131.506      81.225
  O       -2.074    -131.021      79.378
  O       -4.241    -129.678      79.559
  H       -4.333    -130.067      78.667
  H       -3.765    -133.270      82.260
  H       -2.307    -132.306      82.288
  H       -2.749    -133.180      80.841

 6  7  8  9  10  11  12  13  14  15  26  29  33  34 0
 6-311+G(2d,p)
 ****
 36  38  39  40  41 0
 6-311+G(2d,p)
 ****
 1  2  3  4  5  16  17  18  19  20  21  22  23  24  25 0
 3-21G
 ****
 27  28  30  31  32  35  37  42  43  44  45  46  47 0
 3-21G
 ****
 48  49 0
 3-21G
 ****


