%nproc=1
%NoSave
%Mem=1900MB
#P OB98/GEN NMR

erre ene a

0 1
  C       66.729       6.121      59.189
  O       66.894       4.818      59.722
  P       66.752       4.530      61.297
  C       69.243       5.175      61.559
  O       67.912       5.393      61.991
  C       70.223       5.948      62.444
  O       69.958       7.367      62.297
  C       70.129       5.610      63.938
  O       71.452       5.695      64.477
  C       69.257       6.726      64.481
  O       69.422       6.917      65.879
  C       69.720       7.902      63.615
  N       68.745       8.986      63.574
  C       68.961      10.087      64.404
  O       69.929      10.128      65.161
  N       68.067      11.128      64.359
  C       67.007      11.040      63.618
  N       66.183      12.122      63.564
  C       66.684       9.849      62.809
  C       67.599       8.883      62.818
  O       66.739       3.089      61.670
  O       65.440       5.332      61.727
  H       69.020       6.158      66.342
  H       64.608       4.816      61.581
  H       65.774       9.812      62.230
  H       67.460       7.983      62.236
  H       70.681       8.284      63.978
  H       68.204       6.490      64.296
  H       69.727       4.610      64.120
  H       71.240       5.765      62.075
  H       66.526      12.977      63.991
  H       69.336       5.536      60.531
  H       65.545      12.254      62.787
  H       69.465       4.102      61.570
  P       71.924       4.566      65.517
  C       71.634       5.740      67.812
  O       71.134       4.795      66.891
  O       73.402       5.072      65.894
  O       71.984       3.167      64.997
  H       73.935       4.306      66.181
  H       70.969       5.768      68.680
  H       71.661       6.737      67.364
  H       72.635       5.456      68.148
  H       66.864       6.092      58.128
  H       67.453       6.778      59.623
  H       65.745       6.476      59.414

 3  4  5  6  7  8  9  10  11  12  13  23  27  28  29  30  32 0
 6-311+G(2d,p)
 ****
 34  35 0
 6-311+G(2d,p)
 ****
 1  2  14  15  16  17  18  19  20  21  22  24  25  26 0
 3-21G
 ****
 31  33  36  37  38  39  40  41  42  43  44  45  46 0
 3-21G
 ****


