%nproc=1
%NoSave
%Mem=1900MB
#P OB98/GEN NMR

erre ene a

0 1
  C      -89.659      38.248     389.598
  O      -88.730      38.877     390.459
  H      -89.792      38.876     388.712
  H      -90.626      38.139     390.097
  H      -89.287      37.268     389.283
  P      -88.404      38.194     391.874
  C      -89.636      40.061     393.164
  O      -88.407      39.371     392.967
  C      -89.464      41.553     392.836
  O      -89.552      41.696     391.392
  C      -90.555      42.426     393.478
  O      -90.025      43.515     394.237
  C      -91.468      42.765     392.306
  O      -92.196      43.969     392.453
  C      -90.520      42.729     391.102
  N      -91.189      42.466     389.826
  C      -91.952      43.492     389.277
  O      -92.091      44.609     389.778
  N      -92.574      43.193     388.095
  C      -92.510      42.010     387.424
  O      -93.085      41.800     386.361
  C      -91.705      40.956     388.067
  C      -91.088      41.224     389.217
  O      -87.199      37.314     391.905
  O      -89.735      37.383     392.223
  H      -92.535      44.217     391.569
  H      -89.597      36.430     392.044
  H      -93.119      43.934     387.684
  H      -91.639      39.996     387.564
  H      -90.489      40.469     389.718
  H      -89.986      43.678     391.007
  H      -92.206      41.958     392.197
  H      -91.127      41.857     394.217
  H      -88.460      41.872     393.139
  H      -89.928      39.941     394.212
  H      -90.411      39.628     392.522
  P      -90.731      44.158     395.515
  C      -91.395      46.398     394.320
  O      -90.686      45.752     395.364
  O      -90.328      43.588     396.834
  O      -92.291      43.809     395.293
  H      -92.683      43.676     396.182
  H      -91.242      47.455     394.386
  H      -92.439      46.182     394.411
  H      -91.039      46.044     393.375

 6  7  8  9  10  11  12  13  14  15  16  26  31  32  33  34  35 0
 6-311+G(2d,p)
 ****
 36  37 0
 6-311+G(2d,p)
 ****
 1  2  3  4  5  17  18  19  20  21  22  23  24  25 0
 3-21G
 ****
 27  28  29  30  38  39  40  41  42  43  44  45 0
 3-21G
 ****


