%nproc=1
%NoSave
%Mem=1900MB
#P OB98/GEN NMR

erre ene a

0 1
  C      136.832      84.555    -178.484
  O      138.116      84.884    -177.995
  P      138.323      86.169    -177.064
  C      140.766      85.447    -176.726
  O      139.886      86.523    -177.033
  C      142.219      85.888    -176.867
  O      142.480      87.066    -176.071
  C      143.230      84.857    -176.389
  O      143.342      83.766    -177.284
  C      144.481      85.715    -176.258
  O      145.106      85.904    -177.536
  C      143.892      87.047    -175.746
  N      144.113      87.241    -174.321
  C      145.448      87.341    -173.915
  O      146.360      87.186    -174.726
  N      145.710      87.606    -172.593
  C      144.737      87.641    -171.737
  N      145.053      87.968    -170.455
  C      143.330      87.379    -172.103
  C      143.091      87.210    -173.402
  O      137.671      86.096    -175.723
  O      137.708      87.373    -177.924
  H      137.089      87.878    -177.361
  H      145.283      85.012    -177.893
  H      142.567      87.352    -171.341
  H      142.084      87.034    -173.766
  H      144.332      87.890    -176.290
  H      145.228      85.265    -175.595
  H      142.937      84.487    -175.398
  H      142.397      86.139    -177.921
  H      146.024      88.158    -170.247
  H      140.562      84.621    -177.414
  H      144.365      88.335    -169.802
  H      140.565      85.100    -175.706
  P      142.993      82.313    -176.704
  C      142.202      81.863    -179.127
  O      142.783      81.334    -177.953
  O      141.515      82.497    -176.111
  O      143.938      81.817    -175.658
  H      141.418      81.964    -175.301
  H      142.444      81.204    -179.965
  H      142.582      82.865    -179.345
  H      141.115      81.900    -179.011
  H      136.894      83.671    -179.083
  H      136.459      85.363    -179.078
  H      136.170      84.382    -177.661

 3  4  5  6  7  8  9  10  11  12  13  24  27  28  29  30  32 0
 6-311+G(2d,p)
 ****
 34  35 0
 6-311+G(2d,p)
 ****
 1  2  14  15  16  17  18  19  20  21  22  23  25  26 0
 3-21G
 ****
 31  33  36  37  38  39  40  41  42  43  44  45  46 0
 3-21G
 ****


