%nproc=1
%NoSave
%Mem=1900MB
#P OB98/GEN NMR

erre ene a

0 1
  C      610.728     147.468     355.014
  O      611.802     148.298     355.415
  H      610.852     147.227     353.955
  H      609.777     147.995     355.140
  H      610.721     146.539     355.588
  P      611.916     148.722     356.958
  C      612.792     151.137     356.992
  O      613.135     149.763     357.058
  C      614.013     152.012     357.270
  O      614.548     151.669     358.573
  C      615.139     151.839     356.242
  O      615.742     153.114     356.015
  C      616.123     150.927     356.945
  O      617.456     151.099     356.471
  C      615.938     151.334     358.406
  N      619.834     149.207     360.820
  C      619.783     150.343     360.038
  N      620.950     150.998     359.844
  N      618.688     150.793     359.486
  C      617.596     150.048     359.773
  C      617.516     148.905     360.536
  C      618.738     148.406     361.128
  O      618.843     147.399     361.819
  N      616.229     148.418     360.574
  C      615.538     149.268     359.832
  N      616.322     150.267     359.317
  O      611.989     147.589     357.932
  O      610.628     149.637     357.204
  H      617.567     150.510     355.694
  H      609.925     149.128     357.651
  H      620.707     148.897     361.213
  H      614.475     149.201     359.632
  H      616.542     152.211     358.678
  H      615.836     149.879     356.788
  H      621.828     150.720     360.251
  H      614.789     151.420     355.293
  H      620.934     151.848     359.288
  H      613.686     153.057     357.325
  H      612.019     151.337     357.744
  H      612.384     151.362     356.000
  P      615.785     153.693     354.519
  C      618.059     154.855     354.856
  O      616.685     155.022     354.522
  O      614.460     153.821     353.842
  O      616.724     152.638     353.758
  H      616.456     152.596     352.818
  H      618.552     155.804     354.824
  H      618.519     154.191     354.154
  H      618.139     154.444     355.841

 6  7  8  9  10  11  12  13  14  15  26  29  33  34 0
 6-311+G(2d,p)
 ****
 36  38  39  40  41 0
 6-311+G(2d,p)
 ****
 1  2  3  4  5  16  17  18  19  20  21  22  23  24  25 0
 3-21G
 ****
 27  28  30  31  32  35  37  42  43  44  45  46  47 0
 3-21G
 ****
 48  49 0
 3-21G
 ****


