%nproc=1
%NoSave
%Mem=1900MB
#P OB98/GEN NMR

erre ene a

0 1
  C      -33.901    -357.086     -10.383
  O      -33.398    -356.870     -11.686
  H      -33.988    -356.123      -9.873
  H      -33.221    -357.723      -9.814
  H      -34.894    -357.551     -10.422
  P      -33.348    -358.095     -12.715
  C      -33.323    -356.584     -14.808
  O      -32.632    -357.559     -14.042
  C      -32.756    -356.509     -16.229
  O      -31.393    -355.994     -16.165
  C      -32.699    -357.874     -16.962
  O      -32.856    -357.605     -18.357
  C      -31.283    -358.309     -16.635
  O      -30.861    -359.407     -17.399
  C      -30.551    -356.968     -16.835
  N      -29.185    -356.919     -16.323
  C      -28.155    -356.774     -17.242
  O      -28.314    -356.682     -18.462
  N      -26.886    -356.741     -16.720
  C      -26.568    -356.813     -15.401
  O      -25.410    -356.745     -14.982
  C      -27.702    -356.974     -14.466
  C      -28.937    -357.008     -14.963
  O      -34.641    -358.810     -12.935
  O      -32.241    -359.069     -12.078
  H      -32.679    -359.807     -11.622
  H      -30.757    -359.129     -18.334
  H      -26.131    -356.632     -17.379
  H      -27.486    -357.041     -13.412
  H      -29.797    -357.117     -14.310
  H      -30.550    -356.704     -17.899
  H      -31.226    -358.628     -15.583
  H      -33.477    -358.565     -16.630
  H      -33.347    -355.780     -16.807
  H      -33.200    -355.608     -14.311
  H      -34.387    -356.829     -14.840
  P      -34.265    -357.295     -19.048
  C      -33.242    -355.136     -20.042
  O      -34.018    -356.305     -20.291
  O      -35.317    -356.808     -18.095
  O      -34.708    -358.678     -19.741
  H      -35.684    -358.701     -19.813
  H      -33.154    -354.568     -20.944
  H      -32.268    -355.420     -19.702
  H      -33.722    -354.542     -19.292

 6  7  8  9  10  11  12  13  14  15  16  27  31  32  33  34  35 0
 6-311+G(2d,p)
 ****
 36  37 0
 6-311+G(2d,p)
 ****
 1  2  3  4  5  17  18  19  20  21  22  23  24  25 0
 3-21G
 ****
 26  28  29  30  38  39  40  41  42  43  44  45 0
 3-21G
 ****


