%nproc=1
%NoSave
%Mem=1900MB
#P OB98/GEN NMR

erre ene a

0 1
  C      -98.261     180.263    -148.085
  O      -99.397     180.088    -147.259
  P      -99.268     179.383    -145.830
  C      -98.362     180.980    -144.045
  O      -98.022     180.053    -145.068
  C      -97.164     181.280    -143.148
  O      -96.626     180.028    -142.640
  C      -96.013     182.024    -143.842
  O      -95.419     182.878    -142.856
  C      -95.047     180.902    -144.185
  O      -93.718     181.360    -144.403
  C      -95.218     180.011    -142.959
  N      -91.940     176.353    -141.546
  C      -92.082     177.635    -141.148
  N      -92.964     178.556    -141.592
  C      -93.755     178.033    -142.540
  C      -93.710     176.754    -143.074
  C      -92.755     175.882    -142.521
  N      -92.618     174.560    -142.892
  N      -94.649     176.615    -144.078
  C      -95.249     177.786    -144.146
  N      -94.784     178.652    -143.195
  O      -99.252     177.891    -145.856
  O     -100.529     179.932    -145.012
  H      -93.521     182.055    -143.747
  H     -101.203     179.230    -144.932
  H      -91.403     177.965    -140.367
  H      -96.012     178.058    -144.860
  H      -94.669     180.392    -142.090
  H      -95.384     180.394    -145.097
  H      -96.319     182.599    -144.718
  H      -97.519     181.852    -142.280
  H      -99.164     180.541    -143.443
  H      -91.996     173.992    -142.340
  H      -93.374     174.116    -143.411
  H      -98.737     181.908    -144.496
  P      -94.972     184.367    -143.253
  C      -96.941     185.808    -142.489
  O      -96.312     185.172    -143.587
  O      -93.898     184.454    -144.287
  O      -94.501     184.999    -141.858
  H      -93.957     185.789    -142.027
  H      -97.529     185.074    -141.930
  H      -97.608     186.590    -142.863
  H      -96.203     186.261    -141.817
  H      -98.551     180.751    -148.992
  H      -97.836     179.308    -148.314
  H      -97.537     180.863    -147.574

 3  4  5  6  7  8  9  10  11  12  22  25  29  30  31  32 0
 6-311+G(2d,p)
 ****
 33  36  37 0
 6-311+G(2d,p)
 ****
 1  2  13  14  15  16  17  18  19  20  21  23  24  26 0
 3-21G
 ****
 27  28  34  35  38  39  40  41  42  43  44  45  46  47  48 0
 3-21G
 ****


