%nproc=1
%NoSave
%Mem=1900MB
#P OB98/GEN NMR

erre ene a

0 1
  C       -7.553      -5.676      14.866
  O       -6.434      -4.975      15.371
  H       -7.270      -6.719      14.703
  H       -7.866      -5.242      13.912
  H       -8.380      -5.640      15.581
  P       -6.678      -3.465      15.843
  C       -5.571      -2.374      13.727
  O       -6.738      -2.556      14.518
  C       -5.255      -0.885      13.600
  O       -6.259      -0.203      12.824
  C       -5.254      -0.141      14.925
  O       -4.145      -0.464      15.733
  C       -5.262       1.298      14.432
  O       -3.952       1.711      14.020
  C       -6.213       1.197      13.213
  N       -7.540       1.723      13.496
  C       -7.685       3.111      13.370
  O       -6.729       3.806      13.028
  N       -8.902       3.673      13.663
  C       -9.892       2.920      14.024
  N      -11.067       3.540      14.310
  C       -9.790       1.453      14.144
  C       -8.596       0.928      13.874
  O       -5.268      -3.065      16.481
  O       -7.847      -3.260      16.748
  H       -3.443       1.867      14.839
  H       -4.514      -3.217      15.888
  H      -10.645       0.863      14.440
  H       -8.435      -0.140      13.938
  H       -5.803       1.749      12.358
  H       -5.586       1.995      15.206
  H       -6.195      -0.318      15.459
  H       -4.293      -0.785      13.082
  H      -11.095       4.550      14.237
  H       -5.693      -2.828      12.739
  H      -11.895       3.062      14.632
  H       -4.748      -2.892      14.229
  P       -4.287      -0.523      17.328
  C       -2.628       1.372      17.856
  O       -3.992       0.963      17.861
  O       -3.492      -1.592      17.998
  O       -5.868      -0.654      17.551
  H       -6.392       0.084      17.191
  H       -2.554       2.372      18.229
  H       -2.248       1.336      16.856
  H       -2.057       0.716      18.479

 6  7  8  9  10  11  12  13  14  15  16  26  30  31  32  33  35 0
 6-311+G(2d,p)
 ****
 37  38 0
 6-311+G(2d,p)
 ****
 1  2  3  4  5  17  18  19  20  21  22  23  24  25 0
 3-21G
 ****
 27  28  29  34  36  39  40  41  42  43  44  45  46 0
 3-21G
 ****


