%nproc=1
%NoSave
%Mem=1900MB
#P OB98/GEN NMR

erre ene a

0 1
  C      308.151    -426.046    -839.371
  O      307.887    -425.571    -838.060
  P      308.697    -424.287    -837.555
  C      311.220    -423.695    -837.237
  O      310.239    -424.703    -837.488
  C      312.618    -424.253    -837.519
  O      312.816    -424.412    -838.949
  C      313.741    -423.345    -837.054
  O      313.961    -423.450    -835.653
  C      314.918    -423.842    -837.879
  O      315.525    -424.994    -837.276
  C      314.224    -424.219    -839.208
  N      314.451    -423.225    -840.269
  C      315.765    -423.053    -840.668
  O      316.703    -423.678    -840.166
  N      315.977    -422.122    -841.650
  C      315.022    -421.323    -842.211
  O      315.281    -420.467    -843.038
  C      313.642    -421.535    -841.723
  C      313.432    -422.451    -840.781
  O      308.281    -424.146    -836.023
  O      308.425    -423.033    -838.331
  H      316.191    -425.322    -837.909
  H      308.229    -423.198    -835.770
  H      316.924    -421.999    -841.966
  H      312.864    -420.903    -842.138
  H      312.433    -422.607    -840.401
  H      314.595    -425.192    -839.565
  H      315.697    -423.088    -837.995
  H      313.529    -422.296    -837.328
  H      312.708    -425.237    -837.046
  H      311.149    -423.394    -836.189
  H      311.019    -422.828    -837.872
  P      314.575    -422.170    -834.905
  C      316.892    -421.003    -835.155
  O      316.132    -422.182    -835.270
  O      314.495    -422.652    -833.379
  O      313.831    -420.910    -835.210
  H      314.607    -423.624    -833.292
  H      316.568    -420.396    -834.305
  H      316.812    -420.415    -836.070
  H      317.943    -421.280    -835.014
  H      307.541    -426.903    -839.570
  H      309.183    -426.317    -839.451
  H      307.928    -425.277    -840.081

 3  4  5  6  7  8  9  10  11  12  13  23  28  29  30  31  32 0
 6-311+G(2d,p)
 ****
 33  34 0
 6-311+G(2d,p)
 ****
 1  2  14  15  16  17  18  19  20  21  22  24  25  26 0
 3-21G
 ****
 27  35  36  37  38  39  40  41  42  43  44  45 0
 3-21G
 ****


