%nproc=1
%NoSave
%Mem=1900MB
#P OB98/GEN NMR

erre ene a

0 1
  C     1420.846    -347.281     209.463
  O     1420.836    -346.479     210.632
  H     1420.168    -348.130     209.616
  H     1421.854    -347.659     209.281
  H     1420.493    -346.696     208.612
  P     1421.800    -345.190     210.624
  C     1424.264    -345.220     209.862
  O     1423.283    -345.808     210.681
  C     1425.624    -345.887     210.074
  O     1425.567    -347.275     209.678
  C     1426.775    -345.266     209.314
  O     1427.286    -344.143     210.000
  C     1427.785    -346.417     209.291
  O     1428.484    -346.447     210.556
  C     1426.873    -347.654     209.178
  N     1429.004    -350.477     205.438
  C     1429.506    -350.001     206.601
  N     1428.909    -349.207     207.528
  C     1427.638    -348.922     207.146
  C     1426.992    -349.349     205.998
  C     1427.712    -350.155     205.121
  N     1427.206    -350.639     203.934
  N     1425.708    -348.832     205.931
  C     1425.557    -348.177     207.069
  N     1426.713    -348.179     207.827
  O     1421.476    -344.139     211.635
  O     1421.678    -344.732     209.101
  H     1427.784    -346.476     211.252
  H     1421.688    -345.504     208.504
  H     1430.522    -350.305     206.834
  H     1424.632    -347.722     207.416
  H     1427.230    -348.486     209.796
  H     1428.536    -346.304     208.511
  H     1426.498    -345.024     208.263
  H     1425.831    -345.878     211.163
  H     1424.354    -344.144     210.054
  H     1427.857    -351.066     203.295
  H     1426.297    -350.274     203.630
  H     1423.951    -345.359     208.807
  P     1428.135    -342.998     209.235
  C     1429.798    -343.061     207.282
  O     1429.154    -343.814     208.301
  O     1428.742    -341.981     210.133
  O     1427.083    -342.383     208.183
  H     1427.441    -341.523     207.860
  H     1430.450    -343.700     206.724
  H     1430.367    -342.272     207.727
  H     1429.062    -342.644     206.627

 6  7  8  9  10  11  12  13  14  15  25  28  32  33  34  35 0
 6-311+G(2d,p)
 ****
 36  39  40 0
 6-311+G(2d,p)
 ****
 1  2  3  4  5  16  17  18  19  20  21  22  23  24 0
 3-21G
 ****
 26  27  29  30  31  37  38  41  42  43  44  45  46  47 0
 3-21G
 ****
 48 0
 3-21G
 ****


