%nproc=1
%NoSave
%Mem=1900MB
#P OB98/GEN NMR

erre ene a

0 1
  C     -133.752     -23.531     434.857
  O     -134.829     -22.615     434.899
  H     -132.834     -23.003     434.586
  H     -133.625     -23.969     435.848
  H     -133.949     -24.330     434.140
  P     -135.389     -22.077     433.496
  C     -133.964     -19.908     433.554
  O     -135.266     -20.473     433.543
  C     -134.017     -18.456     434.028
  O     -134.630     -17.651     432.980
  C     -134.822     -18.239     435.320
  O     -134.152     -17.254     436.110
  C     -136.134     -17.666     434.819
  O     -136.799     -16.875     435.798
  C     -135.669     -16.872     433.602
  N     -139.940     -14.194     432.951
  C     -138.906     -14.045     433.801
  N     -137.775     -14.774     433.871
  C     -137.743     -15.700     432.896
  C     -138.719     -15.966     431.955
  C     -139.877     -15.173     432.016
  N     -140.968     -15.359     431.198
  N     -138.344     -17.034     431.159
  C     -137.175     -17.418     431.632
  N     -136.771     -16.642     432.685
  O     -136.965     -22.336     433.632
  O     -134.819     -22.729     432.282
  H     -137.584     -16.459     435.388
  H     -137.175     -23.238     433.329
  H     -138.999     -13.241     434.526
  H     -136.599     -18.261     431.277
  H     -135.254     -15.892     433.870
  H     -136.803     -18.482     434.525
  H     -134.962     -19.153     435.911
  H     -132.989     -18.092     434.148
  H     -133.553     -19.938     432.542
  H     -141.794     -14.810     431.388
  H     -140.980     -16.151     430.573
  H     -133.317     -20.499     434.213
  P     -133.251     -17.769     437.332
  C     -134.980     -17.355     439.239
  O     -133.726     -17.013     438.664
  O     -131.820     -17.128     437.029
  O     -133.179     -19.257     437.442
  H     -131.111     -17.717     437.341
  H     -135.144     -16.763     440.115
  H     -134.980     -18.392     439.504
  H     -135.760     -17.168     438.531

 6  7  8  9  10  11  12  13  14  15  25  28  32  33  34  35 0
 6-311+G(2d,p)
 ****
 36  39  40 0
 6-311+G(2d,p)
 ****
 1  2  3  4  5  16  17  18  19  20  21  22  23  24 0
 3-21G
 ****
 26  27  29  30  31  37  38  41  42  43  44  45  46  47 0
 3-21G
 ****
 48 0
 3-21G
 ****


