%nproc=1
%NoSave
%Mem=1900MB
#P OB98/GEN NMR

erre ene a

0 1
  C      -56.371      28.030     123.047
  O      -56.279      26.643     123.310
  H      -56.984      28.175     122.153
  H      -55.383      28.460     122.868
  H      -56.852      28.539     123.886
  P      -55.210      26.152     124.402
  C      -53.793      25.129     122.505
  O      -53.816      26.030     123.609
  C      -52.474      24.361     122.444
  O      -51.375      25.253     122.157
  C      -52.090      23.679     123.748
  O      -52.936      22.621     124.132
  C      -50.609      23.409     123.536
  O      -50.375      22.222     122.778
  C      -50.185      24.653     122.716
  N      -49.423      25.608     123.512
  C      -48.208      25.154     124.009
  O      -47.782      24.013     123.828
  N      -47.499      26.051     124.762
  C      -47.902      27.310     125.094
  O      -47.228      28.060     125.791
  C      -49.214      27.722     124.572
  C      -49.905      26.866     123.813
  O      -55.584      24.915     125.164
  O      -54.988      27.437     125.328
  H      -49.416      22.186     122.596
  H      -54.543      27.193     126.176
  H      -46.607      25.745     125.119
  H      -49.571      28.710     124.826
  H      -50.876      27.148     123.414
  H      -49.562      24.351     121.863
  H      -50.070      23.302     124.480
  H      -52.156      24.421     124.555
  H      -52.539      23.640     121.622
  H      -53.909      25.720     121.590
  H      -54.634      24.432     122.585
  P      -53.459      22.399     125.622
  C      -51.369      20.993     126.321
  O      -52.196      22.123     126.570
  O      -54.664      21.532     125.787
  O      -53.875      23.901     126.047
  H      -54.649      23.826     126.642
  H      -50.580      20.962     127.043
  H      -50.951      21.067     125.339
  H      -51.954      20.100     126.394

 6  7  8  9  10  11  12  13  14  15  16  26  31  32  33  34  35 0
 6-311+G(2d,p)
 ****
 36  37 0
 6-311+G(2d,p)
 ****
 1  2  3  4  5  17  18  19  20  21  22  23  24  25 0
 3-21G
 ****
 27  28  29  30  38  39  40  41  42  43  44  45 0
 3-21G
 ****


