%nproc=1
%NoSave
%Mem=1900MB
#P OB98/GEN NMR

erre ene a

0 1
  C     -528.761    -568.187     -60.491
  O     -528.078    -568.980     -59.529
  P     -528.904    -569.512     -58.263
  C     -529.554    -571.738     -59.439
  O     -530.002    -570.558     -58.786
  C     -529.875    -572.979     -58.597
  O     -531.315    -573.111     -58.458
  C     -529.352    -574.292     -59.208
  O     -528.978    -575.186     -58.155
  C     -530.573    -574.868     -59.893
  O     -530.464    -576.279     -60.050
  C     -531.678    -574.431     -58.929
  N     -535.237    -577.253     -61.151
  C     -534.155    -577.649     -60.391
  N     -533.949    -578.977     -60.285
  N     -533.354    -576.811     -59.790
  C     -533.679    -575.513     -59.986
  C     -534.734    -574.993     -60.705
  C     -535.612    -575.920     -61.379
  O     -536.577    -575.644     -62.089
  N     -534.758    -573.629     -60.652
  C     -533.701    -573.301     -59.933
  N     -532.988    -574.407     -59.540
  O     -529.776    -568.230     -57.839
  O     -528.060    -569.986     -57.125
  H     -530.290    -576.655     -59.162
  H     -529.399    -567.822     -57.032
  H     -535.822    -577.931     -61.605
  H     -533.385    -572.297     -59.696
  H     -531.724    -575.084     -58.044
  H     -530.704    -574.418     -60.882
  H     -534.486    -579.670     -60.781
  H     -528.510    -574.155     -59.905
  H     -533.135    -579.294     -59.772
  H     -529.470    -572.832     -57.594
  H     -528.470    -571.673     -59.576
  H     -530.018    -571.819     -60.431
  P     -527.775    -576.191     -58.491
  C     -525.995    -574.620     -57.418
  O     -526.453    -575.297     -58.577
  O     -528.055    -576.604     -60.015
  O     -527.701    -577.376     -57.589
  H     -527.665    -577.481     -60.209
  H     -525.018    -575.013     -57.152
  H     -526.685    -574.747     -56.571
  H     -525.912    -573.550     -57.644
  H     -528.083    -567.910     -61.271
  H     -529.143    -567.305     -60.020
  H     -529.571    -568.749     -60.906

 3  4  5  6  7  8  9  10  11  12  23  26  30  31 0
 6-311+G(2d,p)
 ****
 33  35  36  37  38 0
 6-311+G(2d,p)
 ****
 1  2  13  14  15  16  17  18  19  20  21  22  24  25 0
 3-21G
 ****
 27  28  29  32  34  39  40  41  42  43  44  45  46  47  48  49 0
 3-21G
 ****


