%nproc=1
%NoSave
%Mem=1900MB
#P OB98/GEN NMR

erre ene a

0 1
  C     -201.855    -180.126      91.673
  O     -201.002    -180.101      90.533
  P     -199.457    -179.697      90.681
  C     -198.758    -181.992      89.748
  O     -198.649    -180.577      89.608
  C     -197.650    -182.698      88.967
  O     -197.926    -182.571      87.547
  C     -196.262    -182.118      89.220
  O     -195.304    -183.180      89.200
  C     -196.003    -181.225      88.019
  O     -194.593    -181.076      87.773
  C     -196.777    -181.961      86.921
  N     -195.877    -180.137      82.202
  C     -195.223    -181.052      82.950
  N     -195.505    -181.470      84.202
  C     -196.618    -180.875      84.665
  C     -197.394    -179.926      84.014
  C     -196.982    -179.549      82.723
  N     -197.656    -178.623      81.956
  N     -198.447    -179.523      84.815
  C     -198.320    -180.233      85.915
  N     -197.239    -181.072      85.868
  O     -198.914    -179.763      92.072
  O     -199.369    -178.220      90.077
  H     -194.497    -180.621      86.912
  H     -198.743    -177.675      90.597
  H     -194.355    -181.512      82.474
  H     -198.973    -180.171      86.777
  H     -196.175    -182.758      86.462
  H     -196.420    -180.227      88.202
  H     -196.195    -181.572      90.169
  H     -197.676    -183.771      89.212
  H     -199.731    -182.302      89.357
  H     -197.356    -178.504      80.997
  H     -198.567    -178.316      82.271
  H     -198.715    -182.258      90.814
  P     -194.552    -183.480      90.596
  C     -194.498    -186.021      90.036
  O     -193.768    -184.856      90.349
  O     -195.491    -183.425      91.762
  O     -193.422    -182.344      90.590
  H     -193.203    -182.055      89.671
  H     -193.795    -186.861      89.944
  H     -195.014    -185.898      89.080
  H     -195.224    -186.248      90.825
  H     -202.841    -180.417      91.375
  H     -201.889    -179.152      92.115
  H     -201.477    -180.828      92.386

 3  4  5  6  7  8  9  10  11  12  22  25  29  30  31  32 0
 6-311+G(2d,p)
 ****
 33  36  37 0
 6-311+G(2d,p)
 ****
 1  2  13  14  15  16  17  18  19  20  21  23  24  26 0
 3-21G
 ****
 27  28  34  35  38  39  40  41  42  43  44  45  46  47  48 0
 3-21G
 ****


