%nproc=1
%NoSave
%Mem=1900MB
#P OB98/GEN NMR

erre ene a

0 1
  C     -658.014    -941.640     194.759
  O     -657.934    -942.783     195.604
  P     -658.546    -944.161     195.054
  C     -660.125    -944.446     197.103
  O     -660.017    -944.266     195.687
  C     -661.578    -944.716     197.498
  O     -662.332    -943.478     197.472
  C     -662.319    -945.650     196.575
  O     -662.057    -947.025     196.887
  C     -663.769    -945.307     196.915
  O     -664.140    -945.954     198.143
  C     -663.707    -943.805     197.109
  N     -667.065    -940.474     195.146
  C     -667.006    -941.084     196.364
  N     -666.071    -941.971     196.794
  C     -665.168    -942.239     195.832
  C     -665.125    -941.725     194.553
  C     -666.127    -940.781     194.214
  N     -666.172    -940.130     192.994
  N     -664.058    -942.204     193.853
  C     -663.444    -943.029     194.714
  N     -664.075    -943.061     195.925
  O     -657.715    -945.277     195.860
  O     -658.452    -944.352     193.571
  H     -664.283    -946.909     197.930
  H     -657.717    -946.103     195.373
  H     -667.783    -940.834     197.058
  H     -662.551    -943.592     194.482
  H     -664.354    -943.469     197.936
  H     -664.484    -945.650     196.150
  H     -662.137    -945.430     195.517
  H     -661.593    -945.087     198.543
  H     -659.774    -943.538     197.607
  H     -666.803    -939.353     192.910
  H     -665.367    -940.206     192.385
  H     -659.495    -945.289     197.403
  P     -662.502    -948.104     195.796
  C     -664.165    -949.418     197.291
  O     -663.990    -948.534     196.190
  O     -661.620    -949.388     196.174
  O     -662.300    -947.684     194.365
  H     -661.484    -949.963     195.387
  H     -665.215    -949.349     197.633
  H     -663.515    -949.146     198.133
  H     -663.967    -950.447     196.985
  H     -657.570    -940.800     195.252
  H     -659.040    -941.426     194.545
  H     -657.492    -941.835     193.845

 3  4  5  6  7  8  9  10  11  12  22  25  29  30  31  32 0
 6-311+G(2d,p)
 ****
 33  36  37 0
 6-311+G(2d,p)
 ****
 1  2  13  14  15  16  17  18  19  20  21  23  24  26 0
 3-21G
 ****
 27  28  34  35  38  39  40  41  42  43  44  45  46  47  48 0
 3-21G
 ****


