%nproc=1
%NoSave
%Mem=1900MB
#P OB98/GEN NMR

erre ene a

0 1
  C      548.498     473.654     110.801
  O      547.982     474.941     111.140
  P      548.548     476.202     110.317
  C      546.111     476.799     109.557
  O      547.448     476.504     109.188
  C      545.540     477.885     108.645
  O      546.313     479.105     108.763
  C      545.569     477.531     107.168
  O      544.560     476.588     106.840
  C      545.385     478.906     106.537
  O      543.998     479.281     106.555
  C      546.179     479.811     107.505
  N      547.482     480.203     106.976
  C      547.523     481.436     106.324
  O      546.533     482.149     106.172
  N      548.747     481.807     105.835
  C      549.894     481.075     105.907
  O      550.964     481.468     105.457
  C      549.779     479.765     106.562
  C      548.597     479.392     107.063
  O      549.763     475.532     109.523
  O      548.916     477.354     111.193
  H      549.584     474.614     109.259
  H      543.650     479.010     107.428
  H      548.800     482.702     105.369
  H      550.667     479.145     106.609
  H      548.490     478.428     107.545
  H      545.615     480.722     107.725
  H      545.721     478.943     105.498
  H      546.552     477.131     106.899
  H      544.518     478.093     108.964
  H      546.081     477.147     110.597
  H      545.517     475.879     109.500
  P      544.817     475.668     105.546
  C      543.772     473.673     106.866
  O      544.818     474.154     106.056
  O      546.361     475.978     105.254
  O      543.902     475.967     104.408
  H      546.910     475.979     106.052
  H      543.758     472.583     106.823
  H      542.798     474.050     106.525
  H      543.940     473.979     107.907
  H      548.040     472.912     111.420
  H      549.557     473.643     110.955
  H      548.284     473.443     109.774

 3  4  5  6  7  8  9  10  11  12  13  24  28  29  30  31  32 0
 6-311+G(2d,p)
 ****
 33  34 0
 6-311+G(2d,p)
 ****
 1  2  14  15  16  17  18  19  20  21  22  23  25  26  27 0
 3-21G
 ****
 35  36  37  38  39  40  41  42  43  44  45 0
 3-21G
 ****


