%nproc=1
%NoSave
%Mem=1900MB
#P OB98/GEN NMR

erre ene a

0 1
  C      359.362     237.774     227.827
  O      360.589     238.411     228.140
  P      360.615     240.021     228.167
  C      361.642     239.935     225.784
  O      360.629     240.475     226.629
  C      361.402     240.345     224.329
  O      360.170     239.775     223.851
  C      361.276     241.848     224.112
  O      362.539     242.487     224.036
  C      360.575     241.886     222.764
  O      361.526     241.658     221.707
  C      359.607     240.697     222.872
  N      355.091     242.475     221.259
  C      356.253     242.266     220.612
  N      357.418     241.794     221.118
  C      357.313     241.577     222.439
  C      356.191     241.780     223.236
  C      355.036     242.247     222.595
  N      353.837     242.437     223.249
  N      356.478     241.447     224.549
  C      357.716     241.039     224.535
  N      358.273     241.086     223.285
  O      362.101     240.357     228.672
  O      359.571     240.651     229.035
  H      361.028     241.705     220.865
  H      362.121     241.246     229.066
  H      356.256     242.490     219.546
  H      358.267     240.688     225.407
  H      359.517     240.144     221.928
  H      360.089     242.843     222.553
  H      360.624     242.311     224.872
  H      362.225     239.940     223.722
  H      361.625     238.842     225.847
  H      353.012     242.585     222.686
  H      353.745     242.069     224.190
  H      362.624     240.295     226.124
  P      362.692     243.885     224.833
  C      362.513     245.240     222.629
  O      361.984     244.981     223.915
  O      364.258     244.199     224.695
  O      362.244     243.815     226.253
  H      364.553     244.763     225.430
  H      361.765     245.767     222.027
  H      362.787     244.320     222.112
  H      363.401     245.885     222.716
  H      359.496     236.713     227.847
  H      359.043     238.075     226.851
  H      358.621     238.053     228.547

 3  4  5  6  7  8  9  10  11  12  22  25  29  30  31  32 0
 6-311+G(2d,p)
 ****
 33  36  37 0
 6-311+G(2d,p)
 ****
 1  2  13  14  15  16  17  18  19  20  21  23  24  26 0
 3-21G
 ****
 27  28  34  35  38  39  40  41  42  43  44  45  46  47  48 0
 3-21G
 ****


