%nproc=1
%NoSave
%Mem=1900MB
#P OB98/GEN NMR

erre ene a

0 1
  C      547.253    -252.364    -549.323
  O      546.881    -252.956    -550.571
  P      548.017    -253.267    -551.657
  C      547.324    -251.773    -553.642
  O      548.244    -251.968    -552.574
  C      547.123    -250.275    -553.934
  O      548.418    -249.633    -554.096
  C      546.305    -250.017    -555.209
  O      545.219    -249.103    -554.993
  C      547.348    -249.577    -556.216
  O      546.801    -248.797    -557.268
  C      548.418    -248.910    -555.340
  N      549.729    -248.895    -555.987
  C      549.908    -247.975    -557.006
  O      549.017    -247.253    -557.436
  N      551.154    -247.963    -557.586
  C      552.180    -248.814    -557.296
  O      553.263    -248.791    -557.872
  C      551.912    -249.809    -556.250
  C      550.713    -249.805    -555.648
  O      547.856    -254.543    -552.411
  O      549.358    -253.300    -550.772
  H      547.501    -248.667    -557.964
  H      549.934    -254.016    -551.120
  H      551.307    -247.285    -558.319
  H      552.683    -250.514    -556.005
  H      550.476    -250.534    -554.887
  H      548.147    -247.868    -555.128
  H      547.782    -250.471    -556.676
  H      545.816    -250.929    -555.562
  H      546.637    -249.840    -553.054
  H      546.360    -252.218    -553.383
  H      547.684    -252.310    -554.534
  P      543.684    -249.543    -554.863
  C      543.476    -250.512    -557.253
  O      543.420    -250.765    -555.861
  O      542.684    -248.444    -554.939
  O      543.634    -250.228    -553.409
  H      542.798    -249.976    -552.964
  H      542.924    -251.318    -557.761
  H      544.517    -250.542    -557.582
  H      543.018    -249.554    -557.515
  H      546.380    -252.225    -548.720
  H      547.717    -251.417    -549.502
  H      547.940    -253.007    -548.814

 3  4  5  6  7  8  9  10  11  12  13  23  28  29  30  31  32 0
 6-311+G(2d,p)
 ****
 33  34 0
 6-311+G(2d,p)
 ****
 1  2  14  15  16  17  18  19  20  21  22  24  25  26  27 0
 3-21G
 ****
 35  36  37  38  39  40  41  42  43  44  45 0
 3-21G
 ****


