%nproc=1
%NoSave
%Mem=1900MB
#P OB98/GEN NMR

erre ene a

0 1
  C       28.065    -279.204    -244.391
  O       27.388    -277.968    -244.440
  H       27.431    -279.927    -243.869
  H       29.002    -279.098    -243.839
  H       28.264    -279.579    -245.397
  P       28.022    -276.770    -245.295
  C       28.590    -274.967    -243.539
  O       29.084    -276.030    -244.350
  C       29.722    -274.368    -242.715
  O       30.228    -275.343    -241.775
  C       30.928    -273.943    -243.544
  O       30.684    -272.737    -244.245
  C       31.999    -273.861    -242.473
  O       31.934    -272.613    -241.767
  C       31.620    -275.035    -241.540
  N       32.467    -276.207    -241.755
  C       33.762    -276.132    -241.249
  O       34.199    -275.151    -240.645
  N       34.574    -277.205    -241.521
  C       34.257    -278.245    -242.349
  O       35.088    -279.049    -242.769
  C       32.857    -278.308    -242.805
  C       32.040    -277.290    -242.501
  O       27.046    -275.871    -245.981
  O       28.962    -277.530    -246.360
  H       28.507    -277.556    -247.223
  H       32.678    -272.625    -241.127
  H       35.524    -277.135    -241.199
  H       32.553    -279.151    -243.397
  H       31.013    -277.300    -242.853
  H       31.705    -274.731    -240.489
  H       33.005    -273.949    -242.896
  H       31.195    -274.743    -244.250
  H       29.327    -273.509    -242.143
  H       27.822    -275.370    -242.866
  H       28.136    -274.209    -244.185
  P       31.314    -272.502    -245.702
  C       33.262    -271.166    -244.683
  O       32.891    -272.252    -245.532
  O       30.610    -271.497    -246.548
  O       31.264    -273.962    -246.385
  H       30.849    -273.874    -247.264
  H       34.329    -271.093    -244.643
  H       32.879    -271.336    -243.698
  H       32.856    -270.255    -245.071

 6  7  8  9  10  11  12  13  14  15  16  27  31  32  33  34  35 0
 6-311+G(2d,p)
 ****
 36  37 0
 6-311+G(2d,p)
 ****
 1  2  3  4  5  17  18  19  20  21  22  23  24  25 0
 3-21G
 ****
 26  28  29  30  38  39  40  41  42  43  44  45 0
 3-21G
 ****


