%nproc=1
%NoSave
%Mem=1900MB
#P OB98/GEN NMR

erre ene a

0 1
  C     -847.213    1150.331     739.135
  O     -848.056    1149.267     739.542
  P     -848.260    1149.061     741.122
  C     -848.026    1146.530     740.572
  O     -848.669    1147.524     741.338
  C     -848.527    1145.143     740.964
  O     -848.137    1144.849     742.311
  C     -850.053    1144.984     740.924
  O     -850.527    1144.872     739.603
  C     -850.213    1143.734     741.779
  O     -849.928    1142.565     741.005
  C     -849.126    1143.950     742.875
  N     -850.687    1142.966     747.653
  C     -850.230    1142.157     746.673
  N     -849.851    1142.489     745.408
  C     -849.971    1143.800     745.222
  C     -850.438    1144.761     746.132
  C     -850.810    1144.285     747.385
  N     -851.254    1145.121     748.392
  N     -850.425    1146.014     745.544
  C     -849.977    1145.829     744.340
  N     -849.674    1144.526     744.091
  O     -849.609    1149.867     741.429
  O     -847.115    1149.540     741.984
  H     -849.780    1141.819     741.634
  H     -849.585    1150.271     742.317
  H     -850.160    1141.083     746.932
  H     -849.841    1146.618     743.596
  H     -848.632    1143.012     743.133
  H     -851.237    1143.625     742.190
  H     -850.534    1145.850     741.423
  H     -848.057    1144.397     740.288
  H     -846.935    1146.575     740.722
  H     -851.635    1144.675     749.232
  H     -851.470    1146.078     748.159
  H     -848.204    1146.727     739.503
  P     -851.957    1145.498     739.279
  C     -852.652    1143.254     738.241
  O     -852.472    1144.648     738.021
  O     -851.573    1146.916     738.622
  O     -852.894    1145.560     740.451
  H     -850.887    1146.793     737.932
  H     -853.054    1142.795     737.322
  H     -853.372    1143.075     739.054
  H     -851.688    1142.788     738.461
  H     -847.163    1150.358     738.067
  H     -846.232    1150.181     739.534
  H     -847.608    1151.257     739.497

 3  4  5  6  7  8  9  10  11  12  22  25  29  30  31  32 0
 6-311+G(2d,p)
 ****
 33  36  37 0
 6-311+G(2d,p)
 ****
 1  2  13  14  15  16  17  18  19  20  21  23  24  26 0
 3-21G
 ****
 27  28  34  35  38  39  40  41  42  43  44  45  46  47  48 0
 3-21G
 ****


