%nproc=1
%NoSave
%Mem=1900MB
#P OB98/GEN NMR

erre ene a

0 1
  C     -214.389    -514.697     219.071
  O     -213.778    -514.336     217.844
  H     -215.075    -513.900     219.363
  H     -213.628    -514.815     219.844
  H     -214.951    -515.625     218.956
  P     -212.736    -515.397     217.235
  C     -210.569    -514.339     218.225
  O     -211.485    -515.423     218.240
  C     -209.576    -514.459     219.392
  O     -208.952    -515.782     219.336
  C     -208.435    -513.426     219.352
  O     -208.024    -513.174     220.707
  C     -207.349    -514.199     218.616
  O     -206.096    -513.553     218.751
  C     -207.525    -515.560     219.270
  N     -203.058    -517.494     217.672
  C     -203.356    -516.426     218.448
  N     -204.567    -515.980     218.847
  C     -205.541    -516.776     218.366
  C     -205.397    -517.903     217.570
  C     -204.077    -518.256     217.208
  N     -203.787    -519.336     216.414
  N     -206.638    -518.448     217.275
  C     -207.505    -517.669     217.877
  N     -206.893    -516.645     218.548
  O     -212.168    -514.649     215.935
  O     -213.306    -516.735     216.894
  H     -205.760    -513.649     219.665
  H     -212.669    -514.930     215.145
  H     -202.494    -515.849     218.803
  H     -208.578    -517.798     217.872
  H     -207.140    -515.581     220.296
  H     -207.565    -514.244     217.547
  H     -208.724    -512.483     218.878
  H     -210.129    -514.415     220.334
  H     -211.136    -513.403     218.318
  H     -210.012    -514.337     217.275
  H     -202.816    -519.510     216.191
  H     -204.540    -519.904     216.049
  P     -208.776    -512.042     221.561
  C     -207.398    -510.116     220.456
  O     -208.681    -510.648     220.774
  O     -207.763    -511.808     222.780
  O     -210.139    -512.404     222.070
  H     -208.256    -511.508     223.555
  H     -207.515    -509.189     219.935
  H     -206.868    -510.809     219.836
  H     -206.847    -509.951     221.358

 6  7  8  9  10  11  12  13  14  15  25  28  32  33  34  35 0
 6-311+G(2d,p)
 ****
 36  37  40 0
 6-311+G(2d,p)
 ****
 1  2  3  4  5  16  17  18  19  20  21  22  23  24 0
 3-21G
 ****
 26  27  29  30  31  38  39 41  42  43  44  45  46  47  48 0
 3-21G
 ****


