%nproc=1
%NoSave
%Mem=1900MB
#P OB98/GEN NMR

erre ene a

0 1
  C       22.606     314.909    -106.015
  O       23.262     315.921    -106.748
  H       23.120     314.781    -105.058
  H       22.640     313.960    -106.558
  H       21.567     315.188    -105.818
  P       22.699     316.303    -108.203
  C       24.454     314.988    -109.588
  O       23.112     315.049    -109.125
  C       24.722     313.638    -110.247
  O       24.603     312.557    -109.301
  C       23.760     313.270    -111.370
  O       23.971     313.998    -112.571
  C       24.085     311.795    -111.525
  O       25.336     311.646    -112.226
  C       24.215     311.365    -110.043
  N       22.973     310.807    -109.509
  C       23.064     309.556    -108.889
  O       24.139     308.965    -108.821
  N       21.920     308.977    -108.393
  C       20.780     309.588    -108.521
  N       19.681     308.967    -108.016
  C       20.637     310.898    -109.183
  C       21.761     311.448    -109.649
  O       23.096     317.645    -108.728
  O       21.115     316.105    -108.084
  H       25.588     310.713    -112.155
  H       20.715     316.340    -108.956
  H       19.660     311.351    -109.295
  H       21.732     312.406    -110.150
  H       25.019     310.630    -109.919
  H       23.337     311.241    -112.089
  H       22.717     313.359    -111.037
  H       25.765     313.646    -110.598
  H       19.810     308.071    -107.566
  H       25.119     315.144    -108.733
  H       18.742     309.331    -108.139
  H       24.633     315.773    -110.326
  P       22.659     314.538    -113.333
  C       22.463     312.612    -115.091
  O       21.925     313.244    -113.936
  O       23.269     315.275    -114.612
  O       21.774     315.423    -112.520
  H       23.314     316.240    -114.466
  H       21.854     311.773    -115.355
  H       23.459     312.279    -114.884
  H       22.481     313.309    -115.903

 6  7  8  9  10  11  12  13  14  15  16  26  30  31  32  33  35 0
 6-311+G(2d,p)
 ****
 37  38 0
 6-311+G(2d,p)
 ****
 1  2  3  4  5  17  18  19  20  21  22  23  24  25 0
 3-21G
 ****
 27  28  29  34  36  39  40  41  42  43  44  45  46 0
 3-21G
 ****


