%nproc=1
%NoSave
%Mem=1900MB
#P OB98/GEN NMR

erre ene a

0 1
  C      375.175    -751.183     178.352
  O      374.536    -752.339     177.856
  H      376.157    -751.469     178.751
  H      374.596    -750.720     179.156
  H      375.332    -750.460     177.541
  P      372.984    -752.225     177.452
  C      371.097    -750.895     178.614
  O      372.223    -751.759     178.787
  C      370.421    -750.600     179.960
  O      371.402    -750.177     180.926
  C      369.402    -749.471     179.901
  O      368.236    -749.785     179.172
  C      369.290    -749.052     181.360
  O      368.350    -749.820     182.100
  C      370.723    -749.332     181.881
  N      371.463    -748.098     182.143
  C      371.926    -747.938     183.444
  O      371.716    -748.743     184.347
  N      372.601    -746.768     183.692
  C      372.808    -745.757     182.797
  O      373.384    -744.719     183.095
  C      372.270    -745.979     181.445
  C      371.637    -747.121     181.179
  O      372.387    -753.443     176.812
  O      372.926    -750.921     176.526
  H      368.443    -749.564     183.037
  H      372.091    -750.892     176.003
  H      372.952    -746.632     184.628
  H      372.412    -745.196     180.706
  H      371.225    -747.310     180.187
  H      370.678    -749.899     182.822
  H      368.994    -748.002     181.451
  H      369.867    -748.625     179.369
  H      369.963    -751.526     180.328
  H      370.384    -751.405     177.958
  H      371.418    -749.965     178.138
  P      367.013    -748.771     178.999
  C      365.687    -747.599     180.896
  O      366.111    -748.824     180.327
  O      366.331    -748.772     177.667
  O      367.760    -747.343     179.150
  H      367.310    -746.707     178.564
  H      365.099    -747.795     181.768
  H      365.099    -747.060     180.184
  H      366.543    -747.016     181.166

 6  7  8  9  10  11  12  13  14  15  16  26  31  32  33  34  35 0
 6-311+G(2d,p)
 ****
 36  37 0
 6-311+G(2d,p)
 ****
 1  2  3  4  5  17  18  19  20  21  22  23  24  25 0
 3-21G
 ****
 27  28  29  30  38  39  40  41  42  43  44  45 0
 3-21G
 ****


