%nproc=1
%NoSave
%Mem=1900MB
#P OB98/GEN NMR

erre ene a

0 1
  C      541.584     177.768     202.387
  O      542.661     177.116     201.699
  P      542.426     176.003     200.569
  C      543.592     177.337     198.686
  O      543.570     176.137     199.456
  C      545.010     177.908     198.561
  O      545.398     178.595     199.763
  C      546.089     176.863     198.316
  O      546.067     176.402     196.973
  C      547.345     177.648     198.698
  O      547.789     178.479     197.614
  C      546.828     178.507     199.873
  N      547.230     177.975     201.171
  C      548.599     177.986     201.452
  O      549.410     178.384     200.611
  N      549.023     177.532     202.682
  C      548.166     177.035     203.522
  N      548.636     176.611     204.721
  C      546.724     176.922     203.217
  C      546.332     177.407     202.044
  O      541.039     175.980     200.011
  O      542.767     174.610     201.283
  H      546.977     178.877     197.232
  H      542.221     173.908     200.882
  H      546.041     176.479     203.934
  H      545.287     177.364     201.747
  H      547.207     179.534     199.791
  H      548.182     176.995     198.970
  H      545.965     176.024     199.003
  H      544.996     178.643     197.736
  H      549.630     176.711     204.897
  H      542.952     178.075     199.199
  H      548.055     176.213     205.438
  H      543.173     177.134     197.696
  P      546.730     174.989     196.609
  C      544.623     173.796     195.769
  O      545.876     174.349     195.414
  O      547.005     174.076     197.757
  O      548.101     175.397     195.872
  H      548.774     174.713     196.053
  H      543.992     173.769     194.874
  H      544.126     174.396     196.539
  H      544.769     172.775     196.130
  H      541.983     178.467     203.092
  H      540.996     177.038     202.903
  H      540.970     178.285     201.680

 3  4  5  6  7  8  9  10  11  12  13  23  27  28  29  30  32 0
 6-311+G(2d,p)
 ****
 34  35 0
 6-311+G(2d,p)
 ****
 1  2  14  15  16  17  18  19  20  21  22  24  25  26 0
 3-21G
 ****
 31  33  36  37  38  39  40  41  42  43  44  45  46 0
 3-21G
 ****


