%nproc=1
%NoSave
%Mem=1900MB
#P OB98/GEN NMR

erre ene a

0 1
  C      106.813    -234.156    -429.932
  O      107.532    -234.184    -428.714
  H      105.935    -233.511    -429.813
  H      106.477    -235.165    -430.186
  H      107.441    -233.755    -430.738
  P      108.922    -234.985    -428.699
  C      110.381    -233.266    -427.387
  O      109.701    -234.511    -427.370
  C      110.915    -232.944    -425.985
  O      109.771    -232.714    -425.105
  C      111.741    -234.084    -425.376
  O      112.813    -233.524    -424.608
  C      110.747    -234.774    -424.448
  O      111.375    -235.507    -423.397
  C      109.921    -233.582    -423.957
  N      108.618    -233.983    -423.449
  C      108.431    -233.976    -422.067
  O      109.282    -233.591    -421.249
  N      107.224    -234.442    -421.622
  C      106.208    -234.937    -422.404
  O      105.161    -235.368    -421.945
  C      106.458    -234.915    -423.855
  C      107.628    -234.449    -424.303
  O      109.758    -234.294    -429.881
  O      108.816    -236.468    -428.860
  H      109.594    -234.753    -430.726
  H      111.985    -236.149    -423.810
  H      107.088    -234.453    -420.620
  H      105.683    -235.300    -424.500
  H      107.851    -234.449    -425.371
  H      110.470    -233.029    -423.196
  H      110.126    -235.469    -425.022
  H      112.144    -234.768    -426.126
  H      111.484    -232.014    -426.029
  H      109.680    -232.478    -427.699
  H      111.210    -233.307    -428.111
  P      114.301    -233.658    -425.196
  C      115.021    -231.286    -424.334
  O      115.217    -232.692    -424.293
  O      114.157    -232.884    -426.585
  O      114.762    -235.078    -425.301
  H      113.568    -232.106    -426.545
  H      115.715    -230.810    -423.674
  H      114.022    -231.056    -424.027
  H      115.178    -230.933    -425.332

 6  7  8  9  10  11  12  13  14  15  16  27  31  32  33  34  35 0
 6-311+G(2d,p)
 ****
 36  37 0
 6-311+G(2d,p)
 ****
 1  2  3  4  5  17  18  19  20  21  22  23  24  25 0
 3-21G
 ****
 26  28  29  30  38  39  40  41  42  43  44  45 0
 3-21G
 ****


