%nproc=1
%NoSave
%Mem=1900MB
#P OB98/GEN NMR

erre ene a

0 1
  C     -906.791    -199.409    -598.758
  O     -906.860    -198.123    -599.348
  P     -907.804    -197.032    -598.636
  C     -906.101    -195.078    -598.861
  O     -906.799    -195.955    -597.977
  C     -905.128    -194.205    -598.084
  O     -904.046    -195.008    -597.563
  C     -904.465    -193.110    -598.902
  O     -905.310    -191.978    -599.055
  C     -903.252    -192.777    -598.034
  O     -903.658    -191.884    -596.974
  C     -902.880    -194.156    -597.461
  N     -897.879    -194.066    -598.289
  C     -898.666    -193.240    -597.505
  N     -898.019    -192.262    -596.814
  N     -899.956    -193.355    -597.396
  C     -900.465    -194.388    -598.102
  C     -899.793    -195.268    -598.924
  C     -898.365    -195.108    -599.070
  O     -897.629    -195.759    -599.801
  N     -900.649    -196.197    -599.464
  C     -901.826    -195.916    -598.948
  N     -901.776    -194.791    -598.141
  O     -908.379    -197.819    -597.360
  O     -908.899    -196.486    -599.485
  H     -902.873    -191.726    -596.425
  H     -909.222    -197.439    -597.080
  H     -896.879    -193.933    -598.328
  H     -902.738    -196.474    -599.121
  H     -902.635    -194.087    -596.387
  H     -902.454    -192.287    -598.584
  H     -897.012    -192.212    -596.748
  H     -904.113    -193.492    -599.874
  H     -898.575    -191.673    -596.199
  H     -905.669    -193.772    -597.227
  H     -906.824    -194.440    -599.367
  H     -905.564    -195.682    -599.607
  P     -905.737    -191.600    -600.579
  C     -908.309    -191.936    -600.599
  O     -907.032    -192.488    -600.867
  O     -904.587    -192.295    -601.455
  O     -905.846    -190.136    -600.829
  H     -904.499    -191.838    -602.304
  H     -908.341    -190.856    -600.826
  H     -908.571    -192.078    -599.554
  H     -909.053    -192.435    -601.230
  H     -906.132    -200.029    -599.330
  H     -907.767    -199.846    -598.741
  H     -906.421    -199.323    -597.758

 3  4  5  6  7  8  9  10  11  12  23  26  30  31  33  0
 6-311+G(2d,p)
 ****
 35  36  37  38 0
 6-311+G(2d,p)
 ****
 1  2  13  14  15  16  17  18  19  20  21  22  24  25  27  28  29 0
 3-21G
 ****
 32  34  39  40  41  42  43  44  45  46  47  48  49 0
 3-21G
 ****


