%nproc=1
%NoSave
%Mem=1900MB
#P OB98/GEN NMR

erre ene a

0 1
  C      164.140    -238.276    -435.522
  O      163.693    -237.248    -436.380
  P      164.727    -236.332    -437.190
  C      165.498    -235.106    -435.056
  O      165.891    -235.923    -436.154
  C      166.721    -234.724    -434.211
  O      166.372    -233.576    -433.374
  C      167.185    -235.864    -433.281
  O      168.574    -236.194    -433.395
  C      166.736    -235.382    -431.911
  O      167.431    -235.988    -430.833
  C      166.876    -233.861    -432.054
  N      166.159    -233.128    -431.013
  C      166.155    -231.737    -431.102
  O      166.704    -231.097    -431.996
  N      165.546    -231.072    -430.075
  C      165.049    -231.638    -428.934
  O      164.600    -230.971    -428.009
  C      165.113    -233.110    -428.882
  C      165.634    -233.782    -429.913
  O      164.128    -235.180    -437.921
  O      165.483    -237.384    -438.134
  H      168.384    -235.975    -431.045
  H      165.950    -238.101    -437.664
  H      165.537    -230.069    -430.124
  H      164.737    -233.585    -427.986
  H      165.698    -234.865    -429.901
  H      167.926    -233.548    -432.033
  H      165.681    -235.638    -431.793
  H      166.671    -236.804    -433.517
  H      167.519    -234.425    -434.896
  H      164.794    -235.664    -434.437
  H      164.975    -234.215    -435.423
  P      169.174    -237.679    -433.354
  C      169.402    -237.564    -430.765
  O      168.926    -238.278    -431.887
  O      170.570    -237.818    -433.864
  O      168.154    -238.517    -434.266
  H      168.623    -239.266    -434.679
  H      169.618    -238.275    -429.964
  H      168.627    -236.874    -430.416
  H      170.313    -237.007    -430.995
  H      163.296    -238.764    -435.081
  H      164.752    -237.856    -434.751
  H      164.710    -238.986    -436.083

 3  4  5  6  7  8  9  10  11  12  13  23  28  29  30  31  32 0
 6-311+G(2d,p)
 ****
 33  34 0
 6-311+G(2d,p)
 ****
 1  2  14  15  16  17  18  19  20  21  22  24  25  26  27 0
 3-21G
 ****
 35  36  37  38  39  40  41  42  43  44  45 0
 3-21G
 ****


