%nproc=1
%NoSave
%Mem=1900MB
#P OB98/GEN NMR

erre ene a

0 1
  C     -193.615      14.957    -271.527
  O     -193.679      13.754    -270.787
  H     -192.575      15.195    -271.761
  H     -194.165      14.822    -272.463
  H     -194.071      15.779    -270.966
  P     -193.081      13.791    -269.298
  C     -194.937      12.365    -268.165
  O     -193.584      12.437    -268.593
  C     -195.868      12.193    -269.366
  O     -195.568      10.927    -270.013
  C     -197.353      12.183    -268.992
  O     -198.088      12.877    -270.002
  C     -197.714      10.707    -269.014
  O     -199.100      10.494    -269.250
  C     -196.800      10.188    -270.120
  N     -198.111       5.570    -271.858
  C     -198.457       6.815    -272.250
  N     -198.057       7.997    -271.736
  C     -197.171       7.804    -270.743
  C     -196.723       6.599    -270.232
  C     -197.239       5.437    -270.829
  N     -196.920       4.163    -270.412
  N     -195.844       6.813    -269.187
  C     -195.763       8.123    -269.074
  N     -196.552       8.764    -269.989
  O     -193.971      14.930    -268.602
  O     -191.623      14.076    -269.189
  H     -199.337      10.925    -270.097
  H     -193.631      15.808    -268.857
  H     -199.153       6.869    -273.085
  H     -195.163       8.654    -268.347
  H     -197.218      10.354    -271.123
  H     -197.458      10.252    -268.050
  H     -197.549      12.639    -268.021
  H     -195.647      12.980    -270.097
  H     -195.192      13.288    -267.635
  H     -197.381       3.389    -270.859
  H     -196.322       4.045    -269.607
  H     -195.055      11.517    -267.483
  P     -198.376      14.435    -269.742
  C     -198.764      15.167    -272.199
  O     -199.334      14.981    -270.911
  O     -196.966      15.129    -270.049
  O     -198.840      14.734    -268.353
  H     -196.723      15.727    -269.319
  H     -199.513      15.531    -272.871
  H     -198.385      14.234    -272.560
  H     -197.965      15.876    -272.136

 6  7  8  9  10  11  12  13  14  15  25  28  32  33  34  35 0
 6-311+G(2d,p)
 ****
 36  39  40 0
 6-311+G(2d,p)
 ****
 1  2  3  4  5  16  17  18  19  20  21  22  23  24 0
 3-21G
 ****
 26  27  29  30  31  37  38  41  42  43  44  45  46  47 0
 3-21G
 ****
 48 0
 3-21G
 ****


