%nproc=1
%NoSave
%Mem=1900MB
#P OB98/GEN NMR

erre ene a

0 1
  C      279.364      -2.384     -28.898
  O      279.364      -1.913     -30.227
  P      279.875      -2.846     -31.425
  C      282.145      -1.636     -31.327
  O      281.477      -2.893     -31.305
  C      283.643      -1.835     -31.111
  O      283.921      -2.287     -29.760
  C      284.263      -2.903     -31.998
  O      284.299      -2.658     -33.385
  C      285.594      -3.136     -31.301
  O      286.550      -2.141     -31.660
  C      285.191      -2.989     -29.812
  N      285.123      -4.280     -29.134
  C      286.334      -4.794     -28.683
  O      287.413      -4.223     -28.828
  N      286.275      -6.020     -28.073
  C      285.154      -6.786     -27.920
  O      285.180      -7.895     -27.407
  C      283.908      -6.198     -28.431
  C      283.946      -4.991     -29.006
  O      279.367      -2.479     -32.777
  O      279.459      -4.319     -30.949
  H      287.235      -2.129     -30.963
  H      279.855      -4.601     -30.106
  H      287.141      -6.418     -27.753
  H      282.999      -6.772     -28.312
  H      283.037      -4.539     -29.393
  H      285.917      -2.359     -29.281
  H      286.025      -4.108     -31.561
  H      283.674      -3.828     -31.882
  H      284.141      -0.868     -31.237
  H      281.750      -1.011     -30.521
  H      281.944      -1.129     -32.276
  P      284.712      -3.764     -34.471
  C      287.247      -3.244     -34.652
  O      286.251      -4.151     -34.231
  O      284.274      -3.519     -35.876
  O      283.955      -5.064     -33.905
  H      283.704      -5.637     -34.655
  H      288.227      -3.688     -34.453
  H      287.168      -2.306     -34.097
  H      287.161      -3.052     -35.727
  H      278.990      -1.620     -28.249
  H      280.362      -2.639     -28.610
  H      278.740      -3.250     -28.827

 3  4  5  6  7  8  9  10  11  12  13  23  28  29  30  31  32 0
 6-311+G(2d,p)
 ****
 33  34 0
 6-311+G(2d,p)
 ****
 1  2  14  15  16  17  18  19  20  21  22  24  25  26  27 0
 3-21G
 ****
 35  36  37  38  39  40  41  42  43  44  45 0
 3-21G
 ****


