%nproc=1
%NoSave
%Mem=1900MB
#P OB98/GEN NMR

erre ene a

0 1
  C     -899.357     744.091    1097.104
  O     -898.347     743.115    1097.226
  P     -897.357     742.877    1095.986
  C     -895.217     744.368    1096.451
  O     -895.857     743.105    1096.543
  C     -894.077     744.444    1097.446
  O     -894.567     744.267    1098.810
  C     -892.987     743.396    1097.286
  O     -892.107     743.699    1096.189
  C     -892.287     743.421    1098.661
  O     -891.387     744.535    1098.732
  C     -893.507     743.655    1099.584
  N     -893.957     742.408    1100.248
  C     -893.257     741.991    1101.336
  O     -892.257     742.577    1101.780
  N     -893.697     740.818    1101.927
  C     -894.687     740.025    1101.504
  O     -895.037     738.969    1102.038
  C     -895.437     740.513    1100.311
  C     -895.057     741.670    1099.710
  O     -897.637     744.193    1095.096
  O     -897.587     741.581    1095.279
  H     -897.947     744.939    1095.657
  H     -890.757     744.433    1097.994
  H     -893.207     740.495    1102.725
  H     -896.257     739.918    1099.945
  H     -895.557     742.044    1098.829
  H     -893.237     744.356    1100.385
  H     -891.737     742.511    1098.874
  H     -893.437     742.390    1097.098
  H     -893.637     745.474    1097.378
  H     -895.957     745.163    1096.666
  H     -894.837     744.492    1095.435
  P     -891.627     742.461    1095.244
  C     -893.457     742.788    1093.376
  O     -892.097     742.847    1093.768
  O     -892.697     741.330    1095.694
  O     -890.187     742.122    1095.401
  H     -893.577     741.677    1095.806
  H     -893.607     743.437    1092.501
  H     -894.107     743.180    1094.161
  H     -893.727     741.759    1093.142
  H     -899.928     744.128    1098.008
  H     -900.000     743.839    1096.286
  H     -898.910     745.046    1096.925

 3  4  5  6  7  8  9  10  11  12  13  24  28  29  30  31  32 0
 6-311+G(2d,p)
 ****
 33  34 0
 6-311+G(2d,p)
 ****
 1  2  14  15  16  17  18  19  20  21  22  23  25  26  27 0
 3-21G
 ****
 35  36  37  38  39  40  41  42  43  44  45 0
 3-21G
 ****


