%nproc=1
%NoSave
%Mem=1900MB
#P OB98/GEN NMR

erre ene a

0 1
  C      -18.737    -113.027    -106.505
  O      -18.590    -113.089    -107.907
  P      -18.364    -111.803    -108.824
  C      -20.349    -112.693    -110.254
  O      -19.067    -112.076    -110.249
  C      -20.927    -112.872    -111.668
  O      -20.993    -111.593    -112.330
  C      -19.977    -113.740    -112.514
  O      -20.039    -115.151    -112.428
  C      -20.077    -113.175    -113.931
  O      -20.971    -113.929    -114.755
  C      -20.614    -111.760    -113.704
  N      -18.408    -109.175    -117.472
  C      -19.540    -109.976    -117.511
  N      -20.020    -110.262    -118.737
  N      -20.119    -110.455    -116.437
  C      -19.466    -110.155    -115.288
  C      -18.352    -109.365    -115.129
  C      -17.746    -108.800    -116.315
  O      -16.698    -108.159    -116.331
  N      -17.924    -109.344    -113.825
  C      -18.754    -110.152    -113.202
  N      -19.682    -110.706    -114.056
  O      -17.002    -111.183    -108.800
  O      -19.384    -110.751    -108.147
  H      -20.640    -114.836    -114.802
  H      -18.980    -109.862    -108.221
  H      -17.962    -108.892    -118.339
  H      -18.708    -110.405    -112.149
  H      -21.521    -111.595    -114.299
  H      -19.098    -113.199    -114.427
  H      -19.517    -110.034    -119.584
  H      -18.957    -113.501    -112.189
  H      -20.735    -110.980    -118.811
  H      -21.947    -113.249    -111.634
  H      -21.017    -112.074    -109.644
  H      -20.283    -113.674    -109.769
  P      -18.874    -116.123    -111.915
  C      -19.227    -117.252    -114.185
  O      -18.872    -117.437    -112.827
  O      -19.416    -116.668    -110.505
  O      -17.539    -115.471    -111.740
  H      -18.663    -116.975    -109.959
  H      -19.484    -118.215    -114.628
  H      -18.371    -116.828    -114.729
  H      -20.082    -116.568    -114.279
  H      -18.876    -114.014    -106.117
  H      -19.588    -112.425    -106.262
  H      -17.859    -112.594    -106.073

 3  4  5  6  7  8  9  10  11  12  23  26  30  31 0
 6-311+G(2d,p)
 ****
 33  35  36  37  38 0
 6-311+G(2d,p)
 ****
 1  2  13  14  15  16  17  18  19  20  21  22  24  25 0
 3-21G
 ****
 27  28  29  32  34  39  40  41  42  43  44  45  46  47  48  49 0
 3-21G
 ****


