%nproc=1
%NoSave
%Mem=1900MB
#P OB98/GEN NMR

erre ene a

0 1
  C     -485.199     196.471    -895.565
  O     -484.038     196.101    -894.816
  P     -484.273     195.652    -893.294
  C     -482.938     193.446    -893.582
  O     -484.168     194.053    -893.222
  C     -483.058     192.788    -894.953
  O     -483.291     193.762    -895.997
  C     -481.801     192.040    -895.381
  O     -481.680     190.808    -894.688
  C     -482.047     191.900    -896.879
  O     -482.958     190.821    -897.146
  C     -482.720     193.240    -897.222
  N     -479.928     194.489    -901.322
  C     -480.740     193.440    -901.070
  N     -481.449     193.178    -899.949
  C     -481.263     194.145    -899.033
  C     -480.467     195.271    -899.150
  C     -479.774     195.429    -900.363
  N     -478.932     196.488    -900.615
  N     -480.527     196.032    -898.005
  C     -481.328     195.363    -897.196
  N     -481.805     194.218    -897.778
  O     -485.830     195.943    -893.061
  O     -483.424     196.390    -892.314
  H     -482.608     190.027    -896.700
  H     -485.944     196.715    -892.477
  H     -480.836     192.713    -901.869
  H     -481.585     195.658    -896.190
  H     -483.541     193.123    -897.939
  H     -481.131     191.703    -897.449
  H     -480.914     192.658    -895.205
  H     -483.911     192.097    -894.932
  H     -482.649     192.699    -892.836
  H     -478.410     196.486    -901.476
  H     -478.744     197.150    -899.876
  H     -482.154     194.209    -893.580
  P     -480.922     190.821    -893.278
  C     -482.484     189.665    -891.601
  O     -482.112     190.892    -892.203
  O     -480.331     192.304    -893.241
  O     -479.936     189.719    -893.084
  H     -480.989     192.966    -893.516
  H     -483.277     189.861    -890.874
  H     -481.630     189.221    -891.089
  H     -482.864     188.976    -892.362
  H     -484.910     196.748    -896.557
  H     -485.681     197.300    -895.090
  H     -485.875     195.642    -895.608

 3  4  5  6  7  8  9  10  11  12  22  25  29  30  31  32 0
 6-311+G(2d,p)
 ****
 33  36  37 0
 6-311+G(2d,p)
 ****
 1  2  13  14  15  16  17  18  19  20  21  23  24  26 0
 3-21G
 ****
 27  28  34  35  38  39  40  41  42  43  44  45  46  47  48 0
 3-21G
 ****


