%nproc=1
%NoSave
%Mem=1900MB
#P OB98/GEN NMR

erre ene a

0 1
  C      -60.170     -10.636      24.036
  O      -59.904     -11.008      25.375
  H      -59.597     -11.286      23.370
  H      -59.860      -9.601      23.871
  H      -61.234     -10.747      23.811
  P      -60.823     -10.331      26.498
  C      -59.703      -7.966      26.665
  O      -59.921      -9.238      27.259
  C      -58.795      -7.121      27.554
  O      -58.700      -5.773      27.055
  C      -59.303      -6.943      28.975
  O      -59.176      -8.116      29.749
  C      -58.414      -5.803      29.452
  O      -57.149      -6.279      29.924
  C      -58.237      -4.964      28.163
  N      -58.931      -3.693      28.248
  C      -58.526      -2.858      29.298
  O      -57.624      -3.213      30.057
  N      -59.177      -1.666      29.478
  C      -60.164      -1.347      28.701
  N      -60.789      -0.166      28.955
  C      -60.624      -2.198      27.585
  C      -59.970      -3.347      27.417
  O      -60.967     -11.501      27.578
  O      -62.122      -9.794      26.002
  H      -56.886      -7.006      29.322
  H      -60.123     -11.913      27.824
  H      -61.443      -1.881      26.957
  H      -60.241      -4.033      26.623
  H      -57.174      -4.762      27.979
  H      -58.874      -5.251      30.275
  H      -60.341      -6.585      28.963
  H      -57.793      -7.570      27.542
  H      -60.478       0.359      29.763
  H      -60.655      -7.452      26.497
  H      -61.615       0.147      28.468
  H      -59.237      -8.130      25.689
  P      -60.243      -8.483      30.885
  C      -59.417      -6.715      32.567
  O      -59.566      -8.104      32.293
  O      -60.793      -9.867      30.822
  O      -61.348      -7.334      30.729
  H      -61.016      -6.428      30.849
  H      -58.958      -6.588      33.525
  H      -60.379      -6.246      32.567
  H      -58.802      -6.267      31.815

 6  7  8  9  10  11  12  13  14  15  16  26  30  31  32  33  35 0
 6-311+G(2d,p)
 ****
 37  38 0
 6-311+G(2d,p)
 ****
 1  2  3  4  5  17  18  19  20  21  22  23  24  25 0
 3-21G
 ****
 27  28  29  34  36  39  40  41  42  43  44  45  46 0
 3-21G
 ****


