%nproc=1
%NoSave
%Mem=1900MB
#P OB98/GEN NMR

erre ene a

0 1
  C       -0.705     -55.737    -337.691
  O       -1.190     -54.409    -337.666
  H       -0.068     -55.863    -338.571
  H       -1.538     -56.443    -337.755
  H       -0.113     -55.938    -336.793
  P       -2.201     -54.044    -336.474
  C       -4.302     -54.480    -337.927
  O       -3.560     -54.844    -336.770
  C       -5.750     -54.162    -337.554
  O       -6.459     -53.616    -338.687
  C       -6.552     -55.363    -337.069
  O       -6.322     -55.606    -335.693
  C       -7.974     -54.908    -337.356
  O       -8.448     -54.010    -336.328
  C       -7.807     -54.164    -338.690
  N      -11.273     -56.333    -341.653
  C      -11.423     -55.634    -340.475
  N      -12.681     -55.512    -339.993
  N      -10.429     -55.102    -339.812
  C       -9.222     -55.348    -340.375
  C       -8.943     -56.032    -341.538
  C      -10.060     -56.567    -342.289
  O       -9.999     -57.124    -343.381
  N       -7.591     -56.053    -341.789
  C       -7.057     -55.416    -340.766
  N       -8.006     -54.976    -339.875
  O       -2.597     -52.519    -336.774
  O       -1.647     -54.195    -335.096
  H       -9.419     -54.065    -336.280
  H       -2.672     -52.043    -335.927
  H      -12.078     -56.694    -342.135
  H       -6.000     -55.241    -340.624
  H       -8.500     -53.316    -338.773
  H       -8.671     -55.746    -337.376
  H      -13.425     -56.127    -340.289
  H       -6.329     -56.255    -337.670
  H      -12.778     -55.061    -339.092
  H       -5.726     -53.381    -336.783
  H       -4.283     -55.312    -338.636
  H       -3.839     -53.603    -338.389
  P       -6.198     -57.125    -335.198
  C       -8.251     -56.949    -333.617
  O       -7.654     -57.612    -334.723
  O       -5.382     -56.988    -333.824
  O       -5.497     -58.033    -336.153
  H       -4.460     -57.285    -333.960
  H       -9.211     -57.379    -333.419
  H       -8.366     -55.910    -333.844
  H       -7.626     -57.059    -332.755

 6  7  8  9  10  11  12  13  14  15  26  29  33  34 0
 6-311+G(2d,p)
 ****
 36  38  39  40  41 0
 6-311+G(2d,p)
 ****
 1  2  3  4  5  16  17  18  19  20  21  22  23  24  25 0
 3-21G
 ****
 27  28  30  31  32  35  37  42  43  44  45  46  47 0
 3-21G
 ****
 48  49 0
 3-21G
 ****


