%nproc=1
%NoSave
%Mem=1900MB
#P OB98/GEN NMR

erre ene a

0 1
  C      225.762      52.453      -9.383
  O      226.417      52.237     -10.617
  H      224.834      51.876      -9.375
  H      225.521      53.513      -9.260
  H      226.396      52.115      -8.560
  P      227.793      53.029     -10.846
  C      229.278      51.037     -10.162
  O      228.853      51.882     -11.224
  C      230.571      50.313     -10.539
  O      231.105      49.675      -9.351
  C      230.373      49.228     -11.600
  O      231.495      49.225     -12.482
  C      230.356      47.941     -10.796
  O      230.751      46.811     -11.568
  C      231.301      48.281      -9.645
  N      232.467      43.932      -7.248
  C      232.999      44.537      -8.331
  N      232.635      45.709      -8.896
  C      231.643      46.286      -8.195
  C      231.000      45.788      -7.076
  C      231.447      44.543      -6.601
  N      230.894      43.907      -5.514
  N      230.001      46.651      -6.669
  C      230.051      47.659      -7.521
  N      231.017      47.474      -8.471
  O      228.207      53.942      -9.741
  O      227.531      53.734     -12.257
  H      230.220      46.799     -12.391
  H      227.114      53.122     -12.891
  H      233.818      44.010      -8.812
  H      229.405      48.530      -7.500
  H      232.354      48.122      -9.904
  H      229.341      47.755     -10.421
  H      229.454      49.364     -12.171
  H      231.310      51.056     -10.860
  H      228.500      50.300      -9.932
  H      231.285      43.022      -5.230
  H      230.145      44.356      -5.006
  H      229.437      51.662      -9.278
  P      231.277      49.709     -13.995
  C      232.524      51.946     -13.677
  O      232.467      50.712     -14.387
  O      229.904      50.176     -14.340
  O      231.656      48.395     -14.834
  H      231.059      48.328     -15.604
  H      233.355      52.521     -14.028
  H      232.641      51.751     -12.631
  H      231.618      52.493     -13.839

 6  7  8  9  10  11  12  13  14  15  25  28  32  33  34  35 0
 6-311+G(2d,p)
 ****
 36  39  40 0
 6-311+G(2d,p)
 ****
 1  2  3  4  5  16  17  18  19  20  21  22  23  24 0
 3-21G
 ****
 26  27  29  30  31  37  38  41  42  43  44  45  46  47 0
 3-21G
 ****
 48 0
 3-21G
 ****


