%nproc=1
%NoSave
%Mem=1900MB
#P OB98/GEN NMR

erre ene a

0 1
  C      195.364    -817.620     234.173
  O      195.894    -818.348     235.267
  H      196.174    -817.049     233.707
  H      194.611    -816.906     234.526
  H      194.930    -818.297     233.442
  P      194.848    -819.210     236.115
  C      196.692    -820.887     236.870
  O      195.702    -819.937     237.276
  C      197.539    -821.298     238.078
  O      196.690    -821.750     239.157
  C      198.517    -822.420     237.796
  O      199.711    -821.950     237.198
  C      198.750    -822.985     239.193
  O      199.703    -822.189     239.919
  C      197.353    -822.872     239.815
  N      196.860    -827.689     241.292
  C      197.773    -826.730     241.665
  N      198.740    -827.127     242.515
  N      197.764    -825.489     241.231
  C      196.751    -825.243     240.343
  C      195.786    -826.104     239.906
  C      195.796    -827.468     240.418
  O      194.966    -828.348     240.165
  N      194.927    -825.485     239.025
  C      195.428    -824.257     238.918
  N      196.543    -824.078     239.690
  O      194.476    -820.419     235.126
  O      193.624    -818.487     236.579
  H      200.529    -822.120     239.393
  H      193.558    -820.715     235.308
  H      196.913    -828.616     241.655
  H      194.981    -823.480     238.293
  H      197.389    -822.643     240.888
  H      199.143    -824.004     239.147
  H      199.007    -828.093     242.610
  H      198.055    -823.204     237.145
  H      199.433    -826.422     242.779
  H      198.070    -820.402     238.430
  H      197.348    -820.428     236.116
  H      196.199    -821.750     236.441
  P      200.336    -822.781     235.995
  C      201.450    -820.541     235.253
  O      201.600    -821.939     235.450
  O      199.273    -822.633     234.821
  O      200.634    -824.218     236.314
  H      199.413    -823.321     234.126
  H      202.370    -820.131     234.892
  H      201.192    -820.076     236.181
  H      200.675    -820.363     234.537

 6  7  8  9  10  11  12  13  14  15  26  29  33  34 0
 6-311+G(2d,p)
 ****
 36  38  39  40  41 0
 6-311+G(2d,p)
 ****
 1  2  3  4  5  16  17  18  19  20  21  22  23  24  25 0
 3-21G
 ****
 27  28  30  31  32  35  37  42  43  44  45  46  47 0
 3-21G
 ****
 48  49 0
 3-21G
 ****


