%nproc=1
%NoSave
%Mem=1900MB
#P OB98/GEN NMR

erre ene a

0 1
  C        3.291    -227.272     -38.136
  O        4.301    -228.192     -37.757
  P        5.469    -227.654     -36.794
  C        7.069    -227.737     -38.839
  O        6.856    -228.087     -37.476
  C        7.863    -228.820     -39.573
  O        7.954    -228.466     -40.975
  C        9.285    -229.020     -39.041
  O        9.585    -230.414     -39.110
  C       10.145    -228.281     -40.048
  O       11.481    -228.783     -40.070
  C        9.347    -228.501     -41.343
  N        9.657    -227.499     -42.360
  C       10.687    -227.804     -43.254
  O       11.337    -228.841     -43.115
  N       10.989    -226.907     -44.248
  C       10.387    -225.758     -44.279
  N       10.718    -224.903     -45.285
  C        9.382    -225.348     -43.278
  C        9.054    -226.266     -42.371
  O        5.362    -228.624     -35.527
  O        5.349    -226.213     -36.416
  H       11.497    -229.580     -40.645
  H        5.616    -228.157     -34.708
  H        8.938    -224.363     -43.328
  H        8.309    -226.060     -41.613
  H        9.556    -229.496     -41.761
  H       10.181    -227.213     -39.797
  H        9.409    -228.664     -38.014
  H        7.299    -229.758     -39.510
  H       11.421    -225.203     -45.949
  H        7.641    -226.806     -38.882
  H       10.304    -223.988     -45.387
  H        6.104    -227.568     -39.325
  P        9.307    -231.301     -37.802
  C       11.275    -230.262     -36.522
  O       10.735    -231.441     -37.086
  O        9.125    -232.762     -38.442
  O        8.146    -230.942     -36.937
  H        8.884    -233.397     -37.743
  H       12.172    -230.524     -35.954
  H       10.554    -229.793     -35.849
  H       11.556    -229.564     -37.318
  H        2.584    -227.761     -38.773
  H        3.735    -226.451     -38.660
  H        2.793    -226.909     -37.261

 3  4  5  6  7  8  9  10  11  12  13  21  23  27  28  29  30  32 0
 6-311+G(2d,p)
 ****
 34  35 0
 6-311+G(2d,p)
 ****
 1  2  14  15  16  17  18  19  20  22  24  25  26 0
 3-21G
 ****
 31  33  36  37  38  39  40  41  42  43  44  45  46 0
 3-21G
 ****


