%nproc=1
%NoSave
%Mem=1900MB
#P OB98/GEN NMR

erre ene a

0 1
  C      557.226    -894.190    -305.047
  O      558.492    -894.750    -305.335
  H      557.363    -893.350    -304.358
  H      556.571    -894.920    -304.574
  H      556.757    -893.820    -305.967
  P      558.504    -896.070    -306.250
  C      560.305    -897.280    -304.810
  O      559.955    -896.730    -306.079
  C      561.817    -897.490    -304.744
  O      562.215    -898.530    -305.686
  C      562.626    -896.260    -305.125
  O      562.712    -895.310    -304.072
  C      563.976    -896.890    -305.441
  O      564.765    -897.080    -304.250
  C      563.579    -898.230    -306.069
  N      563.751    -898.220    -307.522
  C      564.599    -899.180    -308.036
  O      565.210    -900.000    -307.323
  N      564.801    -899.160    -309.392
  C      564.259    -898.240    -310.249
  O      564.519    -898.240    -311.454
  C      563.373    -897.230    -309.654
  C      563.157    -897.270    -308.334
  O      558.521    -895.480    -307.738
  O      557.361    -897.000    -306.036
  H      557.657    -895.590    -308.155
  H      565.508    -897.650    -304.526
  H      565.420    -899.850    -309.781
  H      562.939    -896.480    -310.313
  H      562.522    -896.520    -307.867
  H      564.196    -899.040    -305.652
  H      564.553    -896.260    -306.118
  H      562.217    -895.810    -306.043
  H      562.081    -897.820    -303.740
  H      559.807    -898.260    -304.686
  H      559.958    -896.610    -304.022
  P      562.198    -893.810    -304.377
  C      564.520    -892.710    -303.813
  O      563.133    -892.840    -303.514
  O      560.796    -893.820    -303.601
  O      562.108    -893.500    -305.841
  H      560.794    -894.460    -302.853
  H      564.969    -892.021    -303.129
  H      564.637    -892.348    -304.813
  H      564.996    -893.664    -303.722

 6  7  8  9  10  11  12  13  14  15  16  27  31  32  33  34  35 0
 6-311+G(2d,p)
 ****
 36  37 0
 6-311+G(2d,p)
 ****
 1  2  3  4  5  17  18  19  20  21  22  23  24  25 0
 3-21G
 ****
 26  28  29  30  38  39  40  41  42  43  44  45 0
 3-21G
 ****


