%nproc=1
%NoSave
%Mem=1900MB
#P OB98/GEN NMR

erre ene a

0 1
  C      219.744     382.723     -78.307
  O      219.338     381.464     -78.811
  H      218.914     383.425     -78.412
  H      220.603     383.107     -78.862
  H      219.996     382.635     -77.246
  P      220.461     380.336     -79.025
  C      220.481     380.816     -81.558
  O      221.248     380.770     -80.360
  C      221.230     380.167     -82.721
  O      220.457     380.252     -83.940
  C      222.557     380.832     -83.058
  O      223.549     380.704     -82.065
  C      222.829     380.300     -84.456
  O      223.418     379.001     -84.440
  C      221.396     380.226     -85.040
  N      221.130     381.292     -85.996
  C      221.673     381.122     -87.266
  O      222.359     380.152     -87.587
  N      221.428     382.127     -88.160
  C      220.748     383.283     -87.900
  O      220.581     384.158     -88.741
  C      220.233     383.425     -86.529
  C      220.441     382.438     -85.653
  O      219.964     378.922     -79.046
  O      221.524     380.630     -77.867
  H      223.487     378.710     -85.370
  H      222.134     379.862     -77.740
  H      221.799     382.015     -89.091
  H      219.700     384.333     -86.284
  H      220.067     382.520     -84.636
  H      221.243     379.267     -85.551
  H      223.498     380.952     -85.020
  H      222.382     381.910     -83.165
  H      221.365     379.106     -82.488
  H      220.294     381.870     -81.794
  H      219.522     380.313     -81.399
  P      224.289     381.941     -81.386
  C      226.436     382.034     -82.879
  O      225.214     382.649     -82.489
  O      224.867     381.714     -80.026
  O      223.079     383.001     -81.232
  H      223.246     383.508     -80.412
  H      226.920     382.639     -83.617
  H      226.234     381.066     -83.288
  H      227.074     381.935     -82.025

 6  7  8  9  10  11  12  13  14  15  16  26  31  32  33  34  35 0
 6-311+G(2d,p)
 ****
 36  37 0
 6-311+G(2d,p)
 ****
 1  2  3  4  5  17  18  19  20  21  22  23  24  25 0
 3-21G
 ****
 27  28  29  30  38  39  40  41  42  43  44  45 0
 3-21G
 ****


