%nproc=1
%NoSave
%Mem=1900MB
#P OB98/GEN NMR

erre ene a

0 1
  C     -691.951     240.513     360.156
  O     -690.541     240.466     360.116
  H     -692.346     239.996     359.276
  H     -692.299     241.554     360.120
  H     -692.338     240.020     361.053
  P     -689.721     241.027     361.369
  C     -688.571     238.880     362.228
  O     -689.610     239.834     362.437
  C     -688.938     237.558     362.905
  O     -690.131     236.999     362.302
  C     -687.868     236.481     362.779
  O     -686.788     236.718     363.658
  C     -688.673     235.232     363.083
  O     -688.836     235.053     364.496
  C     -690.023     235.554     362.402
  N     -690.167     234.923     361.093
  C     -690.528     233.575     361.087
  O     -690.677     232.923     362.115
  N     -690.664     232.999     359.854
  C     -690.379     233.594     358.653
  O     -690.431     233.005     357.575
  C     -689.990     235.004     358.717
  C     -689.898     235.602     359.905
  O     -690.194     242.328     361.927
  O     -688.212     241.145     360.811
  H     -687.942     235.105     364.889
  H     -688.013     242.086     360.644
  H     -690.902     232.021     359.826
  H     -689.771     235.524     357.788
  H     -689.605     236.651     359.982
  H     -690.862     235.230     363.031
  H     -688.199     234.331     362.695
  H     -687.506     236.431     361.744
  H     -689.157     237.764     363.963
  H     -687.651     239.270     362.664
  H     -688.429     238.737     361.147
  P     -685.420     237.336     363.112
  C     -685.257     239.235     364.838
  O     -685.406     238.906     363.457
  O     -685.093     237.004     361.683
  O     -684.304     236.741     364.095
  H     -683.667     236.208     363.584
  H     -685.261     240.299     364.954
  H     -684.331     238.840     365.201
  H     -686.067     238.813     365.395

 6  7  8  9  10  11  12  13  14  15  16  26  31  32  33  34  35 0
 6-311+G(2d,p)
 ****
 36  37 0
 6-311+G(2d,p)
 ****
 1  2  3  4  5  17  18  19  20  21  22  23  24  25 0
 3-21G
 ****
 27  28  29  30  38  39  40  41  42  43  44  45 0
 3-21G
 ****


