%nproc=1
%NoSave
%Mem=1900MB
#P OB98/GEN NMR

erre ene a

0 1
  C     -728.214    -802.014     -38.913
  O     -727.159    -802.334     -39.798
  P     -727.333    -802.111     -41.369
  C     -728.816    -803.003     -43.272
  O     -728.406    -803.169     -41.915
  C     -729.213    -804.349     -43.875
  O     -730.291    -804.956     -43.125
  C     -729.731    -804.255     -45.301
  O     -728.694    -804.009     -46.220
  C     -730.409    -805.609     -45.450
  O     -729.452    -806.638     -45.742
  C     -731.008    -805.819     -44.045
  N     -732.438    -805.562     -43.995
  C     -733.269    -806.644     -44.336
  O     -732.780    -807.700     -44.726
  N     -734.625    -806.484     -44.230
  C     -735.122    -805.319     -43.932
  N     -736.469    -805.238     -43.790
  C     -734.280    -804.118     -43.726
  C     -732.968    -804.317     -43.749
  O     -726.057    -802.058     -42.152
  O     -728.121    -800.725     -41.481
  H     -727.651    -800.142     -42.119
  H     -729.071    -806.420     -46.611
  H     -734.743    -803.158     -43.553
  H     -732.275    -803.499     -43.581
  H     -730.815    -806.845     -43.691
  H     -731.149    -805.619     -46.258
  H     -730.482    -803.459     -45.367
  H     -728.342    -805.018     -43.826
  H     -737.004    -806.082     -43.916
  H     -727.982    -802.573     -43.833
  H     -736.912    -804.492     -43.252
  H     -729.655    -802.298     -43.305
  P     -729.131    -803.703     -47.741
  C     -730.169    -805.081     -49.683
  O     -729.534    -805.105     -48.414
  O     -727.755    -803.320     -48.459
  O     -730.145    -802.611     -47.890
  H     -727.902    -802.621     -49.122
  H     -730.052    -806.073     -50.142
  H     -729.720    -804.333     -50.334
  H     -731.233    -804.878     -49.551
  H     -727.915    -802.229     -37.909
  H     -729.077    -802.597     -39.161
  H     -728.449    -800.974     -39.000

 3  4  5  6  7  8  9  10  11  12  13  24  27  28  29  30  32 0
 6-311+G(2d,p)
 ****
 34  35 0
 6-311+G(2d,p)
 ****
 1  2  14  15  16  17  18  19  20  21  22  23  25  26 0
 3-21G
 ****
 31  33  36  37  38  39  40  41  42  43  44  45  46 0
 3-21G
 ****


