%nproc=1
%NoSave
%Mem=1900MB
#P OB98/GEN NMR

erre ene a

0 1
  C      541.912     723.190    -125.618
  O      540.766     723.732    -124.989
  H      541.731     723.145    -126.693
  H      542.096     722.180    -125.251
  H      542.788     723.826    -125.437
  P      540.803     724.002    -123.407
  C      540.477     726.538    -123.700
  O      539.949     725.340    -123.149
  C      539.357     727.442    -124.204
  O      538.872     726.925    -125.469
  C      538.165     727.534    -123.250
  O      537.660     728.871    -123.276
  C      537.143     726.589    -123.860
  O      535.801     726.942    -123.516
  C      537.446     726.723    -125.351
  N      533.526     724.521    -127.653
  C      533.626     725.770    -127.061
  N      532.514     726.537    -127.063
  N      534.727     726.220    -126.516
  C      535.765     725.355    -126.599
  C      535.793     724.099    -127.157
  C      534.562     723.596    -127.740
  O      534.399     722.491    -128.262
  N      537.022     723.510    -127.017
  C      537.749     724.424    -126.382
  N      537.019     725.543    -126.097
  O      542.167     724.011    -122.788
  O      539.874     722.856    -122.795
  H      535.211     726.480    -124.153
  H      540.419     722.126    -122.435
  H      532.651     724.216    -128.051
  H      538.785     724.307    -126.094
  H      536.940     727.590    -125.803
  H      537.335     725.567    -123.511
  H      531.642     726.255    -127.476
  H      538.419     727.257    -122.219
  H      532.573     727.464    -126.658
  H      539.779     728.434    -124.405
  H      541.143     726.273    -124.534
  H      541.073     727.063    -122.934
  P      536.734     729.371    -122.066
  C      538.308     731.306    -121.407
  O      537.006     730.937    -121.843
  O      536.785     728.544    -120.822
  O      535.266     729.363    -122.712
  H      534.613     729.177    -122.013
  H      538.359     732.369    -121.297
  H      539.030     730.987    -122.130
  H      538.515     730.840    -120.466

 6  7  8  9  10  11  12  13  14  15  26  29  33  34 0
 6-311+G(2d,p)
 ****
 36  38  39  40  41 0
 6-311+G(2d,p)
 ****
 1  2  3  4  5  16  17  18  19  20  21  22  23  24  25 0
 3-21G
 ****
 27  28  30  31  32  35  37  42  43  44  45  46  47 0
 3-21G
 ****
 48  49 0
 3-21G
 ****


