%nproc=1
%NoSave
%Mem=1900MB
#P OB98/GEN NMR

erre ene a

0 1
  C      -87.952     329.793       3.087
  O      -87.496     329.859       4.432
  P      -85.988     329.390       4.725
  C      -85.841     329.765       7.290
  O      -85.508     330.252       5.994
  C      -84.809     330.218       8.313
  O      -83.507     329.717       7.954
  C      -84.648     331.730       8.425
  O      -85.660     332.317       9.233
  C      -83.281     331.829       9.093
  O      -83.426     331.644      10.513
  C      -82.523     330.649       8.473
  N      -78.021     332.650       7.290
  C      -78.579     332.393       8.528
  N      -77.821     332.692       9.603
  N      -79.782     331.897       8.692
  C      -80.407     331.609       7.533
  C      -79.959     331.818       6.241
  C      -78.652     332.421       6.068
  O      -78.131     332.727       5.004
  N      -80.875     331.383       5.319
  C      -81.857     330.880       6.038
  N      -81.635     331.022       7.388
  O      -85.167     330.030       3.510
  O      -85.784     327.916       4.814
  H      -82.535     331.480      10.874
  H      -84.352     329.516       3.351
  H      -77.092     333.018       7.217
  H      -82.743     330.413       5.631
  H      -81.944     330.105       9.225
  H      -82.803     332.801       8.945
  H      -76.849     332.956       9.536
  H      -84.608     332.195       7.434
  H      -78.200     332.479      10.518
  H      -85.081     329.787       9.288
  H      -85.865     328.667       7.267
  H      -86.835     330.130       7.562
  P      -86.460     333.556       8.599
  C      -86.118     335.626      10.135
  O      -86.883     334.463       9.841
  O      -87.829     332.894       8.110
  O      -85.737     334.245       7.487
  H      -88.215     333.411       7.373
  H      -85.771     336.116       9.221
  H      -85.263     335.348      10.755
  H      -86.745     336.323      10.686
  H      -88.965     330.132       3.037
  H      -87.897     328.782       2.741
  H      -87.337     330.415       2.471

 3  4  5  6  7  8  9  10  11  12  23  26  30  31  33  0
 6-311+G(2d,p)
 ****
 35  36  37  38 0
 6-311+G(2d,p)
 ****
 1  2  13  14  15  16  17  18  19  20  21  22  24  25  27  28  29 0
 3-21G
 ****
 32  34  39  40  41  42  43  44  45  46  47  48  49 0
 3-21G
 ****


