%nproc=1
%NoSave
%Mem=1900MB
#P OB98/GEN NMR

erre ene a

0 1
  C      210.810      34.740      89.935
  O      210.549      35.852      90.769
  H      211.863      34.761      89.641
  H      210.192      34.802      89.036
  H      210.611      33.802      90.463
  P      209.163      35.839      91.580
  C      208.062      36.723      89.399
  O      207.993      35.803      90.479
  C      206.728      36.776      88.662
  O      206.603      35.647      87.769
  C      205.505      36.740      89.573
  O      205.192      38.032      90.079
  C      204.441      36.266      88.597
  O      204.035      37.362      87.748
  C      205.210      35.224      87.769
  N      203.673      30.487      86.803
  C      203.523      31.638      86.053
  N      202.863      31.509      84.882
  N      203.974      32.810      86.417
  C      204.593      32.794      87.622
  C      204.799      31.720      88.460
  C      204.309      30.427      88.038
  O      204.426      29.377      88.660
  N      205.464      32.089      89.599
  C      205.643      33.388      89.460
  N      205.129      33.866      88.279
  O      209.086      37.328      92.169
  O      209.069      34.820      92.665
  H      203.458      36.988      87.055
  H      209.333      37.306      93.113
  H      203.298      29.612      86.481
  H      206.141      34.024      90.178
  H      204.876      35.192      86.727
  H      203.541      35.902      89.097
  H      202.469      30.641      84.552
  H      205.618      36.004      90.379
  H      202.744      32.340      84.313
  H      206.723      37.682      88.043
  H      208.850      36.404      88.708
  H      208.310      37.715      89.794
  P      204.366      38.129      91.449
  C      202.325      39.395      90.469
  O      202.807      38.193      91.055
  O      204.686      39.615      91.946
  O      204.724      37.118      92.484
  H      205.239      39.586      92.751
  H      201.280      39.296      90.261
  H      202.854      39.585      89.558
  H      202.478      40.209      91.147

 6  7  8  9  10  11  12  13  14  15  26  29  33  34 0
 6-311+G(2d,p)
 ****
 36  38  39  40  41 0
 6-311+G(2d,p)
 ****
 1  2  3  4  5  16  17  18  19  20  21  22  23  24  25 0
 3-21G
 ****
 27  28  30  31  32  35  37  42  43  44  45  46  47 0
 3-21G
 ****
 48  49 0
 3-21G
 ****


