%nproc=1
%NoSave
%Mem=1900MB
#P OB98/GEN NMR

erre ene a

0 1
  C     -185.322     349.039       3.413
  O     -186.491     348.269       3.631
  H     -185.534     349.789       2.646
  H     -184.500     348.405       3.068
  H     -185.031     349.556       4.334
  P     -186.428     347.065       4.689
  C     -187.315     348.717       6.471
  O     -186.323     347.752       6.140
  C     -187.971     348.370       7.809
  O     -186.969     348.231       8.836
  C     -188.964     349.415       8.310
  O     -190.224     349.255       7.675
  C     -189.006     349.072       9.792
  O     -189.819     347.890       9.992
  C     -187.532     348.746      10.082
  N     -186.901     352.323      13.636
  C     -187.933     351.420      13.461
  N     -188.955     351.498      14.341
  N     -187.965     350.523      12.506
  C     -186.909     350.606      11.657
  C     -185.836     351.472      11.715
  C     -185.780     352.411      12.819
  O     -184.868     353.215      13.019
  N     -185.009     351.319      10.627
  C     -185.553     350.331       9.946
  N     -186.715     349.867      10.523
  O     -185.386     346.017       4.436
  O     -187.910     346.451       4.679
  H     -189.998     347.825      10.951
  H     -187.985     345.723       4.039
  H     -186.934     352.992      14.386
  H     -185.151     349.906       9.029
  H     -187.424     347.959      10.841
  H     -189.441     349.868      10.403
  H     -189.061     352.257      15.005
  H     -188.572     350.432       8.194
  H     -189.750     350.881      14.193
  H     -188.455     347.389       7.698
  H     -188.060     348.718       5.664
  H     -186.870     349.715       6.526
  P     -191.137     350.523       7.283
  C     -190.174     350.281       4.883
  O     -190.441     351.152       5.969
  O     -191.373     351.491       8.386
  O     -192.464     349.878       6.669
  H     -193.131     349.642       7.367
  H     -189.715     350.832       4.088
  H     -191.091     349.852       4.536
  H     -189.514     349.502       5.204

 6  7  8  9  10  11  12  13  14  15  26  29  33  34 0
 6-311+G(2d,p)
 ****
 36  38  39  40  41 0
 6-311+G(2d,p)
 ****
 1  2  3  4  5  16  17  18  19  20  21  22  23  24  25 0
 3-21G
 ****
 27  28  30  31  32  35  37  42  43  44  45  46  47 0
 3-21G
 ****
 48  49 0
 3-21G
 ****


