%nproc=1
%NoSave
%Mem=1900MB
#P OB98/GEN NMR

erre ene a

0 1
  C       73.655    -240.758     443.411
  O       73.118    -241.143     442.162
  P       72.271    -240.102     441.291
  C       70.033    -241.359     441.141
  O       70.726    -240.244     441.696
  C       68.524    -241.191     441.312
  O       68.151    -241.279     442.705
  C       67.997    -239.838     440.847
  O       67.979    -239.730     439.438
  C       66.628    -239.819     441.516
  O       65.677    -240.581     440.757
  C       66.930    -240.519     442.861
  N       67.023    -239.580     443.967
  C       65.845    -238.895     444.296
  O       64.830    -239.042     443.615
  N       65.859    -238.062     445.382
  C       66.971    -237.829     446.006
  N       66.909    -237.039     447.114
  C       68.267    -238.405     445.589
  C       68.213    -239.280     444.585
  O       72.535    -240.135     439.822
  O       72.663    -238.673     441.905
  H       72.915    -238.076     441.173
  H       65.717    -240.239     439.843
  H       69.176    -238.126     446.097
  H       69.112    -239.768     444.223
  H       66.147    -241.252     443.086
  H       66.227    -238.805     441.614
  H       68.619    -239.037     441.267
  H       68.028    -242.004     440.768
  H       66.006    -236.678     447.381
  H       70.360    -242.267     441.659
  H       67.626    -237.062     447.836
  H       70.293    -241.453     440.084
  P       67.757    -238.265     438.824
  C       65.796    -239.135     437.373
  O       66.240    -238.182     438.318
  O       68.612    -238.299     437.467
  O       68.193    -237.146     439.714
  H       69.019    -237.427     437.318
  H       64.702    -239.171     437.398
  H       66.186    -240.134     437.597
  H       66.116    -238.834     436.373
  H       74.185    -241.582     443.841
  H       72.861    -240.464     444.065
  H       74.326    -239.936     443.273

 3  4  5  6  7  8  9  10  11  12  13  24  27  28  29  30  32 0
 6-311+G(2d,p)
 ****
 34  35 0
 6-311+G(2d,p)
 ****
 1  2  14  15  16  17  18  19  20  21  22  23  25  26 0
 3-21G
 ****
 31  33  36  37  38  39  40  41  42  43  44  45  46 0
 3-21G
 ****


