%nproc=1
%NoSave
%Mem=1900MB
#P OB98/GEN NMR

erre ene a

0 1
  C       17.909    -488.282    -516.199
  O       17.670    -489.618    -515.777
  P       17.572    -489.888    -514.193
  C       15.688    -491.624    -514.622
  O       16.939    -491.349    -514.003
  C       14.910    -492.683    -513.838
  O       15.641    -493.942    -513.893
  C       14.688    -492.354    -512.348
  O       13.416    -492.881    -511.988
  C       15.816    -493.116    -511.679
  O       15.644    -493.309    -510.282
  C       15.808    -494.388    -512.532
  N       17.963    -498.522    -510.400
  C       16.692    -498.062    -510.397
  N       16.190    -496.960    -510.992
  C       17.165    -496.302    -511.652
  C       18.497    -496.631    -511.730
  C       18.903    -497.805    -511.061
  N       20.206    -498.263    -511.056
  N       19.192    -495.705    -512.492
  C       18.284    -494.823    -512.849
  N       17.046    -495.153    -512.392
  O       16.386    -488.910    -513.727
  O       18.838    -489.640    -513.427
  H       16.210    -494.040    -509.977
  H       16.576    -488.508    -512.867
  H       15.970    -498.661    -509.839
  H       18.482    -493.928    -513.434
  H       14.980    -495.047    -512.283
  H       16.751    -492.570    -511.806
  H       14.699    -491.276    -512.142
  H       13.943    -492.844    -514.342
  H       15.854    -491.995    -515.634
  H       20.425    -498.986    -510.395
  H       20.918    -497.622    -511.384
  H       15.108    -490.690    -514.696
  P       12.343    -491.914    -511.281
  C       10.718    -493.738    -512.108
  O       11.061    -492.862    -511.040
  O       11.850    -491.034    -512.523
  O       12.833    -491.129    -510.115
  H       11.600    -491.585    -513.288
  H        9.903    -494.393    -511.770
  H       11.575    -494.350    -512.383
  H       10.371    -493.152    -512.974
  H       17.950    -488.247    -517.268
  H       18.839    -487.941    -515.795
  H       17.117    -487.651    -515.852

 3  4  5  6  7  8  9  10  11  12  22  25  29  30  31  32 0
 6-311+G(2d,p)
 ****
 33  36  37 0
 6-311+G(2d,p)
 ****
 1  2  13  14  15  16  17  18  19  20  21  23  24  26 0
 3-21G
 ****
 27  28  34  35  38  39  40  41  42  43  44  45  46  47  48 0
 3-21G
 ****


