%nproc=1
%NoSave
%Mem=1900MB
#P OB98/GEN NMR

erre ene a

0 1
  C     -275.879    -194.407    -138.261
  O     -275.303    -193.125    -138.428
  H     -275.096    -195.106    -137.955
  H     -276.309    -194.751    -139.205
  H     -276.651    -194.376    -137.489
  P     -276.286    -191.965    -138.940
  C     -276.182    -190.551    -136.769
  O     -276.981    -191.351    -137.629
  C     -276.992    -189.373    -136.231
  O     -276.370    -188.823    -135.051
  C     -277.157    -188.223    -137.217
  O     -278.236    -188.466    -138.105
  C     -277.428    -187.061    -136.269
  O     -278.805    -187.058    -135.833
  C     -276.488    -187.374    -135.099
  N     -273.874    -183.082    -134.600
  C     -275.231    -183.316    -134.499
  N     -276.016    -182.242    -134.256
  N     -275.777    -184.497    -134.635
  C     -274.882    -185.467    -134.935
  C     -273.515    -185.364    -135.064
  C     -272.919    -184.061    -134.856
  O     -271.719    -183.803    -134.850
  N     -272.949    -186.578    -135.353
  C     -273.972    -187.407    -135.433
  N     -275.171    -186.778    -135.189
  O     -277.479    -192.770    -139.644
  O     -275.680    -190.976    -139.874
  H     -278.911    -186.413    -135.111
  H     -277.767    -192.276    -140.434
  H     -273.508    -182.159    -134.458
  H     -273.902    -188.464    -135.649
  H     -276.910    -187.053    -134.139
  H     -277.258    -186.098    -136.755
  H     -275.700    -181.300    -134.429
  H     -276.226    -188.033    -137.764
  H     -277.016    -182.406    -134.254
  H     -277.972    -189.761    -135.926
  H     -275.321    -190.172    -137.335
  H     -275.821    -191.163    -135.938
  P     -278.506    -187.409    -139.278
  C     -277.544    -188.805    -141.247
  O     -277.408    -187.652    -140.428
  O     -278.054    -186.022    -138.618
  O     -279.921    -187.343    -139.746
  H     -278.843    -185.495    -138.384
  H     -276.747    -188.832    -141.960
  H     -278.482    -188.769    -141.761
  H     -277.506    -189.683    -140.636

 6  7  8  9  10  11  12  13  14  15  26  29  33  34 0
 6-311+G(2d,p)
 ****
 36  38  39  40  41 0
 6-311+G(2d,p)
 ****
 1  2  3  4  5  16  17  18  19  20  21  22  23  24  25 0
 3-21G
 ****
 27  28  30  31  32  35  37  42  43  44  45  46  47 0
 3-21G
 ****
 48  49 0
 3-21G
 ****


