%nproc=1
%NoSave
%Mem=1900MB
#P OB98/GEN NMR

erre ene a

0 1
  C      -99.898     882.718     495.248
  O      -99.554     881.685     496.152
  H     -100.967     882.651     495.034
  H      -99.341     882.609     494.318
  H      -99.690     883.699     495.697
  P      -98.020     881.623     496.621
  C      -96.739     880.531     498.603
  O      -97.984     880.713     497.948
  C      -96.875     880.923     500.072
  O      -97.186     882.326     500.177
  C      -97.997     880.205     500.802
  O      -97.638     878.877     501.176
  C      -98.211     881.134     501.991
  O      -97.280     880.861     503.046
  C      -97.957     882.516     501.392
  N     -101.093     886.207     503.003
  C      -99.899     885.786     503.449
  N      -99.110     884.796     502.953
  C      -99.679     884.252     501.869
  C     -100.888     884.581     501.288
  C     -101.627     885.613     501.897
  N     -102.854     886.024     501.455
  N     -101.144     883.762     500.205
  C     -100.103     882.971     500.115
  N      -99.189     883.221     501.103
  O      -97.743     883.102     497.167
  O      -97.051     881.230     495.560
  H      -97.328     879.897     503.214
  H      -97.279     883.624     496.483
  H      -99.518     886.294     504.335
  H      -99.976     882.185     499.372
  H      -97.364     883.158     502.056
  H      -99.223     881.010     502.394
  H      -98.915     880.198     500.185
  H      -95.910     880.750     500.581
  H      -95.983     881.162     498.133
  H      -96.436     879.479     498.505
  H     -103.346     886.729     501.982
  H     -103.300     885.516     500.709
  P      -98.674     877.707     500.830
  C      -98.478     875.198     500.124
  O      -97.812     876.404     500.452
  O      -99.302     878.158     499.422
  O      -99.726     877.475     501.857
  H     -100.248     877.883     499.384
  H      -97.756     874.441     499.901
  H      -99.103     875.357     499.270
  H      -99.078     874.885     500.953

 6  7  8  9  10  11  12  13  14  15  25  28  32  33  34  35 0
 6-311+G(2d,p)
 ****
 36  37  40 0
 6-311+G(2d,p)
 ****
 1  2  3  4  5  16  17  18  19  20  21  22  23  24 0
 3-21G
 ****
 26  27  29  30  31  38  39 41  42  43  44  45  46  47  48 0
 3-21G
 ****


