%nproc=1
%NoSave
%Mem=1900MB
#P OB98/GEN NMR

erre ene a

0 1
  C     -360.877    -330.733    -128.009
  O     -360.973    -330.537    -126.611
  H     -359.820    -330.810    -128.282
  H     -361.316    -329.887    -128.544
  H     -361.386    -331.661    -128.290
  P     -362.439    -330.293    -126.012
  C     -361.702    -330.378    -123.519
  O     -362.247    -329.601    -124.576
  C     -360.694    -329.539    -122.736
  O     -359.594    -329.164    -123.600
  C     -361.259    -328.229    -122.205
  O     -362.030    -328.402    -121.025
  C     -359.980    -327.449    -121.950
  O     -359.412    -327.763    -120.669
  C     -359.063    -327.919    -123.093
  N     -358.941    -326.907    -124.141
  C     -357.952    -325.947    -123.938
  O     -357.214    -325.930    -122.953
  N     -357.863    -324.973    -124.899
  C     -358.678    -324.841    -125.985
  O     -358.580    -323.907    -126.772
  C     -359.715    -325.875    -126.134
  C     -359.805    -326.842    -125.221
  O     -362.940    -331.770    -125.655
  O     -363.384    -329.586    -126.926
  H     -363.608    -332.055    -126.304
  H     -360.043    -327.426    -120.005
  H     -357.155    -324.269    -124.772
  H     -360.383    -325.798    -126.982
  H     -360.565    -327.611    -125.301
  H     -358.059    -328.139    -122.715
  H     -360.169    -326.377    -121.968
  H     -361.833    -327.722    -122.985
  H     -360.294    -330.151    -121.919
  H     -361.188    -331.253    -123.933
  H     -362.514    -330.721    -122.873
  P     -363.135    -327.287    -120.688
  C     -364.814    -328.725    -119.255
  O     -363.789    -327.733    -119.297
  O     -364.240    -327.624    -121.790
  O     -362.589    -325.896    -120.736
  H     -364.214    -328.558    -122.059
  H     -365.118    -328.882    -118.241
  H     -364.440    -329.642    -119.661
  H     -365.653    -328.396    -119.832

 6  7  8  9  10  11  12  13  14  15  16  27  31  32  33  34  35 0
 6-311+G(2d,p)
 ****
 36  37 0
 6-311+G(2d,p)
 ****
 1  2  3  4  5  17  18  19  20  21  22  23  24  25 0
 3-21G
 ****
 26  28  29  30  38  39  40  41  42  43  44  45 0
 3-21G
 ****


