%nproc=1
%NoSave
%Mem=1900MB
#P OB98/GEN NMR

erre ene a

0 1
  C     -257.179     542.563    -482.646
  O     -257.490     541.203    -482.420
  H     -257.016     543.052    -481.680
  H     -258.007     543.062    -483.158
  H     -256.267     542.647    -483.245
  P     -257.876     540.333    -483.712
  C     -259.943     540.490    -485.298
  O     -259.394     540.767    -484.019
  C     -261.322     541.134    -485.420
  O     -261.224     542.570    -485.297
  C     -262.010     540.893    -486.765
  O     -262.584     539.603    -486.879
  C     -263.075     541.984    -486.710
  O     -264.117     541.586    -485.806
  C     -262.254     543.161    -486.141
  N     -261.647     543.989    -487.183
  C     -262.512     544.822    -487.909
  O     -263.716     544.833    -487.666
  N     -261.993     545.591    -488.918
  C     -260.722     545.560    -489.175
  N     -260.267     546.346    -490.194
  C     -259.774     544.711    -488.436
  C     -260.292     543.962    -487.467
  O     -258.046     538.852    -483.122
  O     -256.945     540.436    -484.874
  H     -264.437     540.715    -486.107
  H     -258.431     538.257    -483.816
  H     -258.721     544.706    -488.695
  H     -259.659     543.307    -486.873
  H     -262.876     543.800    -485.501
  H     -263.543     542.176    -487.672
  H     -261.335     541.098    -487.606
  H     -261.936     540.771    -484.592
  H     -260.955     546.870    -490.722
  H     -260.021     539.400    -485.413
  H     -259.332     546.274    -490.565
  H     -259.287     540.879    -486.082
  P     -262.969     539.098    -488.359
  C     -264.592     539.918    -490.216
  O     -264.177     540.024    -488.865
  O     -263.673     537.691    -488.086
  O     -261.815     538.977    -489.301
  H     -263.491     537.057    -488.807
  H     -265.401     540.595    -490.395
  H     -264.915     538.917    -490.412
  H     -263.773     540.161    -490.861

 6  7  8  9  10  11  12  13  14  15  16  26  30  31  32  33  35 0
 6-311+G(2d,p)
 ****
 37  38 0
 6-311+G(2d,p)
 ****
 1  2  3  4  5  17  18  19  20  21  22  23  24  25 0
 3-21G
 ****
 27  28  29  34  36  39  40  41  42  43  44  45  46 0
 3-21G
 ****


