%nproc=1
%NoSave
%Mem=1900MB
#P OB98/GEN NMR

erre ene a

0 1
  C       50.041     204.101     641.295
  O       50.627     205.073     640.452
  H       49.674     203.271     640.674
  H       49.192     204.534     641.828
  H       50.767     203.702     642.017
  P       51.498     206.247     641.120
  C       52.625     208.371     640.186
  O       51.576     207.429     640.031
  C       52.721     209.291     638.962
  O       53.352     208.554     637.874
  C       51.358     209.799     638.457
  O       51.569     211.098     637.875
  C       51.036     208.785     637.368
  O       50.039     209.263     636.497
  C       52.429     208.572     636.752
  N       52.507     207.352     635.952
  C       52.623     207.509     634.578
  O       52.628     208.608     634.024
  N       52.687     206.365     633.841
  C       52.591     205.083     634.335
  O       52.621     204.098     633.614
  C       52.419     204.977     635.785
  C       52.393     206.097     636.529
  O       52.812     205.841     641.689
  O       50.528     206.873     642.232
  H       50.201     210.203     636.274
  H       51.055     207.231     642.977
  H       52.783     206.465     632.841
  H       52.327     203.983     636.204
  H       52.259     206.049     637.606
  H       52.705     209.422     636.105
  H       50.675     207.848     637.806
  H       50.595     209.842     639.232
  H       53.386     210.131     639.202
  H       53.569     207.813     640.297
  H       52.455     208.970     641.090
  P       50.937     212.422     638.516
  C       51.616     214.908     638.846
  O       51.898     213.674     638.180
  O       50.597     212.310     639.978
  O       49.623     212.721     637.653
  H       48.963     213.205     638.190
  H       52.322     215.650     638.536
  H       51.688     214.767     639.904
  H       50.627     215.230     638.596

 6  7  8  9  10  11  12  13  14  15  16  26  31  32  33  34  35 0
 6-311+G(2d,p)
 ****
 36  37 0
 6-311+G(2d,p)
 ****
 1  2  3  4  5  17  18  19  20  21  22  23  24  25 0
 3-21G
 ****
 27  28  29  30  38  39  40  41  42  43  44  45 0
 3-21G
 ****


