%nproc=1
%NoSave
%Mem=1900MB
#P OB98/GEN NMR

erre ene a

0 1
  C      595.147    -184.690     436.158
  O      593.795    -185.062     436.440
  P      593.166    -186.327     435.689
  C      593.281    -188.122     437.532
  O      593.813    -187.667     436.297
  C      594.172    -189.213     438.141
  O      594.184    -190.398     437.288
  C      595.633    -188.761     438.298
  O      596.228    -189.371     439.455
  C      596.301    -189.346     437.069
  O      597.714    -189.458     437.243
  C      595.558    -190.673     436.943
  N      598.470    -193.369     433.708
  C      598.643    -193.036     435.002
  N      597.818    -192.335     435.810
  C      596.698    -191.985     435.148
  C      596.376    -192.266     433.830
  C      597.329    -192.990     433.095
  N      597.165    -193.308     431.761
  N      595.143    -191.737     433.506
  C      594.752    -191.105     434.589
  N      595.641    -191.253     435.624
  O      593.153    -186.257     434.200
  O      591.673    -186.377     436.271
  H      598.093    -188.563     437.130
  H      591.053    -186.579     435.541
  H      599.575    -193.367     435.455
  H      593.848    -190.523     434.682
  H      595.934    -191.418     437.658
  H      596.111    -188.701     436.202
  H      595.762    -187.676     438.366
  H      593.757    -189.517     439.106
  H      592.274    -188.511     437.377
  H      597.944    -193.728     431.284
  H      596.388    -192.903     431.257
  H      593.170    -187.269     438.217
  P      596.198    -188.497     440.805
  C      594.738    -190.169     442.188
  O      594.852    -188.907     441.562
  O      596.408    -187.035     440.576
  O      597.364    -189.184     441.666
  H      597.304    -190.150     441.730
  H      593.805    -190.199     442.752
  H      595.566    -190.337     442.879
  H      594.723    -190.957     441.433
  H      595.409    -183.831     436.739
  H      595.244    -184.460     435.118
  H      595.799    -185.501     436.406

 3  4  5  6  7  8  9  10  11  12  22  25  29  30  31  32 0
 6-311+G(2d,p)
 ****
 33  36  37 0
 6-311+G(2d,p)
 ****
 1  2  13  14  15  16  17  18  19  20  21  23  24  26 0
 3-21G
 ****
 27  28  34  35  38  39  40  41  42  43  44  45  46  47  48 0
 3-21G
 ****


