%nproc=1
%NoSave
%Mem=1900MB
#P OB98/GEN NMR

erre ene a

0 1
  C       -6.861      -3.230    -253.295
  O       -7.987      -2.779    -254.019
  H       -6.276      -3.895    -253.934
  H       -7.185      -3.785    -252.413
  H       -6.236      -2.385    -252.995
  P       -8.940      -1.713    -253.290
  C       -8.399       0.156    -255.004
  O       -9.398      -0.667    -254.423
  C       -8.951       0.898    -256.220
  O       -9.044      -0.035    -257.339
  C      -10.347       1.504    -256.011
  O      -10.413       2.731    -256.746
  C      -11.259       0.496    -256.693
  O      -12.518       1.056    -257.060
  C      -10.377       0.088    -257.872
  N      -12.498      -1.838    -262.007
  C      -12.124      -0.541    -261.712
  N      -12.351       0.390    -262.664
  N      -11.577      -0.186    -260.580
  C      -11.378      -1.225    -259.732
  C      -11.706      -2.549    -259.904
  C      -12.338      -2.925    -261.153
  O      -12.707      -4.051    -261.464
  N      -11.367      -3.288    -258.797
  C      -10.835      -2.412    -257.963
  N      -10.821      -1.149    -258.486
  O       -7.908      -0.875    -252.399
  O      -10.043      -2.295    -252.473
  H      -12.345       1.868    -257.581
  H       -7.859      -1.249    -251.499
  H      -12.928      -2.054    -262.889
  H      -10.454      -2.639    -256.977
  H      -10.363       0.847    -258.663
  H      -11.445      -0.358    -256.029
  H      -12.725       0.182    -263.576
  H      -10.609       1.683    -254.964
  H      -12.045       1.338    -262.482
  H       -8.230       1.670    -256.514
  H       -7.559      -0.473    -255.318
  H       -8.044       0.876    -254.258
  P      -11.625       3.731    -256.436
  C      -10.091       5.753    -255.868
  O      -11.116       5.228    -256.697
  O      -11.736       3.671    -254.838
  O      -12.913       3.358    -257.093
  H      -12.652       3.861    -254.564
  H       -9.867       6.755    -256.169
  H       -9.213       5.148    -255.960
  H      -10.420       5.752    -254.850

 6  7  8  9  10  11  12  13  14  15  26  29  33  34 0
 6-311+G(2d,p)
 ****
 36  38  39  40  41 0
 6-311+G(2d,p)
 ****
 1  2  3  4  5  16  17  18  19  20  21  22  23  24  25 0
 3-21G
 ****
 27  28  30  31  32  35  37  42  43  44  45  46  47 0
 3-21G
 ****
 48  49 0
 3-21G
 ****


