%nproc=1
%NoSave
%Mem=1900MB
#P OB98/GEN NMR

erre ene a

0 1
  C       55.556     -70.444      84.136
  O       56.480     -70.346      83.044
  P       56.786     -68.892      82.445
  C       58.234     -68.143      80.416
  O       57.273     -69.056      80.925
  C       58.494     -68.413      78.931
  O       59.079     -69.713      78.718
  C       57.237     -68.391      78.075
  O       56.863     -67.066      77.730
  C       57.706     -69.144      76.841
  O       58.469     -68.264      75.992
  C       58.618     -70.219      77.444
  N       57.344     -74.696      75.307
  C       57.978     -73.609      74.813
  N       58.264     -72.448      75.439
  C       57.839     -72.477      76.711
  C       57.178     -73.511      77.352
  C       56.929     -74.667      76.595
  N       56.285     -75.771      77.103
  N       56.889     -73.173      78.658
  C       57.381     -71.960      78.806
  N       57.957     -71.493      77.655
  O       58.123     -68.459      83.212
  O       55.688     -67.904      82.660
  H       57.857     -67.573      75.676
  H       58.118     -67.496      83.368
  H       58.297     -73.681      73.778
  H       57.347     -71.385      79.722
  H       59.502     -70.411      76.824
  H       56.877     -69.525      76.239
  H       56.420     -68.939      78.563
  H       59.199     -67.653      78.567
  H       59.166     -68.225      80.981
  H       56.167     -76.574      76.508
  H       55.994     -75.763      78.071
  H       57.871     -67.122      80.570
  P       55.753     -66.355      78.646
  C       55.863     -64.128      79.978
  O       56.238     -64.838      78.815
  O       56.004     -67.008      80.085
  O       54.351     -66.550      78.178
  H       55.166     -67.044      80.586
  H       56.508     -63.252      80.077
  H       55.974     -64.747      80.871
  H       54.825     -63.794      79.888
  H       55.454     -71.469      84.426
  H       54.603     -70.063      83.833
  H       55.921     -69.874      84.964

 3  4  5  6  7  8  9  10  11  12  22  25  29  30  31  32 0
 6-311+G(2d,p)
 ****
 33  36  37 0
 6-311+G(2d,p)
 ****
 1  2  13  14  15  16  17  18  19  20  21  23  24  26 0
 3-21G
 ****
 27  28  34  35  38  39  40  41  42  43  44  45  46  47  48 0
 3-21G
 ****


