%nproc=1
%NoSave
%Mem=1900MB
#P OB98/GEN NMR

erre ene a

0 1
  C     -351.673     277.317     -55.662
  O     -350.952     278.160     -56.561
  P     -349.467     278.622     -56.185
  C     -348.587     278.877     -58.596
  O     -348.886     279.535     -57.371
  C     -349.781     278.948     -59.564
  O     -350.208     280.329     -59.713
  C     -349.445     278.401     -60.960
  O     -350.393     277.438     -61.424
  C     -349.304     279.656     -61.806
  O     -349.520     279.419     -63.187
  C     -350.262     280.639     -61.117
  N     -349.901     282.035     -61.392
  C     -350.428     282.598     -62.545
  O     -351.097     281.962     -63.361
  N     -350.107     283.910     -62.774
  C     -349.265     284.670     -62.015
  O     -348.973     285.826     -62.286
  C     -348.688     283.999     -60.839
  C     -349.029     282.733     -60.585
  O     -348.550     277.544     -55.708
  O     -349.717     279.702     -55.018
  H     -349.387     280.262     -63.673
  H     -349.012     279.589     -54.350
  H     -350.496     284.337     -63.600
  H     -348.000     284.564     -60.226
  H     -348.610     282.214     -59.734
  H     -351.289     280.495     -61.464
  H     -348.280     280.030     -61.698
  H     -348.495     277.858     -60.960
  H     -350.597     278.377     -59.115
  H     -348.353     277.832     -58.398
  H     -347.684     279.318     -59.032
  P     -350.620     276.000     -60.762
  C     -353.214     275.926     -60.811
  O     -351.998     275.406     -61.317
  O     -350.459     275.938     -59.281
  O     -349.512     275.096     -61.477
  H     -349.120     274.485     -60.820
  H     -354.006     275.194     -60.991
  H     -353.458     276.852     -61.331
  H     -353.144     276.115     -59.735
  H     -352.641     277.108     -56.068
  H     -351.781     277.811     -54.719
  H     -351.138     276.401     -55.526

 3  4  5  6  7  8  9  10  11  12  13  23  28  29  30  31  32 0
 6-311+G(2d,p)
 ****
 33  34 0
 6-311+G(2d,p)
 ****
 1  2  14  15  16  17  18  19  20  21  22  24  25  26  27 0
 3-21G
 ****
 35  36  37  38  39  40  41  42  43  44  45 0
 3-21G
 ****


