%nproc=1
%NoSave
%Mem=1900MB
#P OB98/GEN NMR

erre ene a

0 1
  C      236.758     230.621     222.299
  O      237.521     229.434     222.195
  H      237.250     231.291     223.010
  H      235.753     230.396     222.667
  H      236.701     231.117     221.327
  P      236.939     228.283     221.241
  C      236.015     227.043     223.333
  O      235.740     227.580     222.043
  C      235.313     225.697     223.487
  O      233.887     225.900     223.627
  C      235.478     224.770     222.288
  O      236.741     224.129     222.276
  C      234.326     223.801     222.515
  O      234.688     222.760     223.435
  C      233.233     224.717     223.119
  N      232.191     225.038     222.152
  C      230.883     224.784     222.567
  O      230.608     224.314     223.672
  N      229.905     225.049     221.647
  C      230.101     225.495     220.371
  O      229.182     225.641     219.576
  C      231.498     225.760     219.998
  C      232.465     225.515     220.886
  O      238.102     227.181     221.252
  O      236.592     228.723     219.858
  H      238.615     227.230     220.423
  H      233.996     222.072     223.354
  H      228.952     224.860     221.924
  H      231.691     226.124     218.992
  H      233.509     225.682     220.623
  H      232.761     224.224     223.979
  H      234.025     223.315     221.588
  H      235.301     225.319     221.355
  H      235.681     225.214     224.404
  H      235.644     227.729     224.104
  H      237.100     226.934     223.446
  P      237.574     224.100     220.904
  C      236.645     221.684     220.443
  O      236.874     222.999     219.970
  O      238.932     223.407     221.378
  O      237.740     225.444     220.276
  H      238.793     222.724     222.059
  H      236.172     221.107     219.676
  H      236.011     221.720     221.304
  H      237.579     221.232     220.706

 6  7  8  9  10  11  12  13  14  15  16  27  31  32  33  34  35 0
 6-311+G(2d,p)
 ****
 36  37 0
 6-311+G(2d,p)
 ****
 1  2  3  4  5  17  18  19  20  21  22  23  24  25 0
 3-21G
 ****
 26  28  29  30  38  39  40  41  42  43  44  45 0
 3-21G
 ****


