%nproc=1
%NoSave
%Mem=1900MB
#P OB98/GEN NMR

erre ene a

0 1
  C     -310.576     630.425     426.883
  O     -311.004     630.820     428.190
  P     -310.537     632.278     428.679
  C     -311.886     634.295     429.615
  O     -311.707     632.889     429.603
  C     -312.870     634.718     430.710
  O     -314.253     634.451     430.341
  C     -312.651     633.991     432.033
  O     -311.569     634.594     432.733
  C     -313.999     634.180     432.730
  O     -314.069     635.457     433.388
  C     -314.985     634.122     431.547
  N     -319.341     631.607     432.227
  C     -318.967     632.873     432.661
  N     -319.895     633.567     433.353
  N     -317.792     633.393     432.434
  C     -316.966     632.578     431.725
  C     -317.240     631.335     431.218
  C     -318.538     630.751     431.475
  O     -318.924     629.656     431.097
  N     -316.155     630.845     430.500
  C     -315.214     631.750     430.685
  N     -315.678     632.856     431.366
  O     -310.593     633.161     427.349
  O     -309.176     632.290     429.291
  H     -313.931     636.157     432.728
  H     -309.683     633.384     427.065
  H     -320.253     631.249     432.440
  H     -314.209     631.667     430.327
  H     -315.770     634.887     431.644
  H     -314.159     633.419     433.493
  H     -320.834     633.219     433.566
  H     -312.456     632.926     431.844
  H     -319.649     634.495     433.679
  H     -312.768     635.804     430.854
  H     -312.246     634.636     428.635
  H     -310.908     634.776     429.768
  P     -310.317     633.667     433.107
  C     -307.750     634.105     433.148
  O     -309.049     634.630     433.308
  O     -310.005     632.905     431.725
  O     -310.562     632.690     434.212
  H     -309.829     631.958     431.908
  H     -307.080     634.897     432.798
  H     -307.736     633.271     432.424
  H     -307.385     633.739     434.121
  H     -310.944     629.444     426.668
  H     -309.507     630.421     426.844
  H     -310.957     631.115     426.159

 3  4  5  6  7  8  9  10  11  12  23  26  30  31 0
 6-311+G(2d,p)
 ****
 33  35  36  37  38 0
 6-311+G(2d,p)
 ****
 1  2  13  14  15  16  17  18  19  20  21  22  24  25 0
 3-21G
 ****
 27  28  29  32  34  39  40  41  42  43  44  45  46  47  48  49 0
 3-21G
 ****


