%nproc=1
%NoSave
%Mem=1900MB
#P OB98/GEN NMR

erre ene a

0 1
  C      357.031      -6.581    -142.742
  O      357.573      -7.021    -143.970
  H      357.118      -7.388    -142.011
  H      355.971      -6.339    -142.866
  H      357.570      -5.708    -142.367
  P      357.736      -5.965    -145.166
  C      355.321      -5.618    -146.016
  O      356.381      -5.110    -145.218
  C      354.169      -4.610    -146.094
  O      353.490      -4.582    -144.799
  C      354.609      -3.161    -146.401
  O      353.528      -2.537    -147.114
  C      354.746      -2.600    -144.998
  O      354.883      -1.203    -144.986
  C      353.487      -3.206    -144.358
  N      353.426      -3.130    -142.906
  C      353.063      -1.912    -142.337
  O      352.790      -0.895    -142.975
  N      353.026      -1.884    -140.968
  C      353.296      -2.933    -140.133
  O      353.216      -2.850    -138.911
  C      353.679      -4.190    -140.793
  C      353.723      -4.232    -142.124
  O      358.177      -6.531    -146.475
  O      358.797      -4.908    -144.595
  H      359.675      -5.086    -144.980
  H      354.240      -0.815    -145.620
  H      352.762      -1.011    -140.539
  H      353.910      -5.036    -140.160
  H      353.991      -5.150    -142.644
  H      352.594      -2.738    -144.784
  H      355.651      -2.992    -144.528
  H      355.517      -3.111    -147.005
  H      353.437      -4.965    -146.828
  H      354.969      -6.551    -145.568
  H      355.701      -5.828    -147.023
  P      353.408      -2.529    -148.714
  C      354.792      -0.345    -148.892
  O      354.654      -1.701    -149.302
  O      352.085      -2.058    -149.218
  O      353.701      -4.039    -149.166
  H      353.257      -4.214    -150.018
  H      355.657       0.082    -149.356
  H      354.901      -0.303    -147.828
  H      353.922       0.206    -149.184

 6  7  8  9  10  11  12  13  14  15  16  27  31  32  33  34  35 0
 6-311+G(2d,p)
 ****
 36  37 0
 6-311+G(2d,p)
 ****
 1  2  3  4  5  17  18  19  20  21  22  23  24  25 0
 3-21G
 ****
 26  28  29  30  38  39  40  41  42  43  44  45 0
 3-21G
 ****


