%nproc=1
%NoSave
%Mem=1900MB
#P OB98/GEN NMR

erre ene a

0 1
  C     1166.621    -347.896     595.895
  O     1166.510    -348.371     594.553
  P     1165.904    -347.359     593.463
  C     1167.401    -347.806     591.355
  O     1167.128    -346.994     592.493
  C     1168.578    -348.737     591.662
  O     1168.222    -349.692     592.699
  C     1169.013    -349.577     590.481
  O     1169.741    -348.809     589.531
  C     1169.833    -350.666     591.175
  O     1171.149    -350.176     591.479
  C     1169.034    -350.873     592.477
  N     1168.221    -352.085     592.468
  C     1168.471    -352.995     593.491
  O     1169.340    -352.819     594.347
  N     1167.709    -354.124     593.477
  C     1166.767    -354.444     592.555
  O     1166.100    -355.476     592.606
  C     1166.574    -353.466     591.476
  C     1167.301    -352.347     591.475
  O     1165.687    -346.040     594.345
  O     1164.676    -347.883     592.795
  H     1166.376    -345.933     595.025
  H     1171.032    -349.279     591.851
  H     1167.865    -354.789     594.215
  H     1165.843    -353.704     590.704
  H     1167.175    -351.621     590.681
  H     1169.714    -350.929     593.334
  H     1169.953    -351.568     590.565
  H     1168.143    -350.033     589.996
  H     1169.413    -348.130     592.029
  H     1167.659    -347.184     590.500
  H     1166.507    -348.374     591.109
  P     1168.977    -348.431     588.159
  C     1169.788    -346.017     587.576
  O     1168.802    -346.843     588.153
  O     1167.505    -348.987     588.467
  O     1169.613    -349.023     586.940
  H     1167.198    -348.761     589.357
  H     1169.348    -345.043     587.359
  H     1170.170    -346.449     586.651
  H     1170.618    -345.881     588.284
  H     1167.036    -348.665     596.512
  H     1165.651    -347.630     596.261
  H     1167.259    -347.037     595.918

 3  4  5  6  7  8  9  10  11  12  13  24  28  29  30  31  32 0
 6-311+G(2d,p)
 ****
 33  34 0
 6-311+G(2d,p)
 ****
 1  2  14  15  16  17  18  19  20  21  22  23  25  26  27 0
 3-21G
 ****
 35  36  37  38  39  40  41  42  43  44  45 0
 3-21G
 ****


