%nproc=1
%NoSave
%Mem=1900MB
#P OB98/GEN NMR

erre ene a

0 1
  C      328.771    -162.850    -197.052
  O      329.317    -162.376    -195.839
  H      329.291    -162.364    -197.882
  H      327.707    -162.606    -197.115
  H      328.910    -163.930    -197.137
  P      328.682    -162.882    -194.457
  C      327.511    -160.686    -193.770
  O      327.344    -162.026    -194.221
  C      326.155    -160.085    -193.388
  O      325.351    -160.011    -194.595
  C      325.402    -160.939    -192.358
  O      324.982    -160.197    -191.217
  C      324.324    -161.624    -193.190
  O      323.167    -161.995    -192.468
  C      324.074    -160.625    -194.325
  N      323.528    -161.228    -195.539
  C      322.331    -160.711    -196.028
  O      321.711    -159.771    -195.531
  N      321.845    -161.318    -197.154
  C      322.408    -162.367    -197.816
  O      321.928    -162.862    -198.829
  C      323.662    -162.885    -197.240
  C      324.154    -162.301    -196.143
  O      329.615    -162.919    -193.294
  O      328.116    -164.342    -194.800
  H      322.651    -162.611    -193.023
  H      328.727    -165.018    -194.455
  H      320.985    -160.942    -197.523
  H      324.134    -163.721    -197.733
  H      325.076    -162.653    -195.692
  H      323.383    -159.842    -194.002
  H      324.749    -162.542    -193.611
  H      326.058    -161.704    -191.930
  H      326.308    -159.059    -193.032
  H      327.967    -160.112    -194.586
  H      328.182    -160.671    -192.904
  P      325.800    -160.086    -189.852
  C      324.432    -161.768    -188.374
  O      325.639    -161.465    -189.062
  O      325.592    -158.833    -189.072
  O      327.340    -160.103    -190.342
  H      327.841    -159.549    -189.709
  H      324.517    -162.729    -187.910
  H      323.618    -161.778    -189.069
  H      324.252    -161.025    -187.625

 6  7  8  9  10  11  12  13  14  15  16  26  31  32  33  34  35 0
 6-311+G(2d,p)
 ****
 36  37 0
 6-311+G(2d,p)
 ****
 1  2  3  4  5  17  18  19  20  21  22  23  24  25 0
 3-21G
 ****
 27  28  29  30  38  39  40  41  42  43  44  45 0
 3-21G
 ****


