%nproc=1
%NoSave
%Mem=1900MB
#P OB98/GEN NMR

erre ene a

0 1
  C       63.285      11.119      27.637
  O       64.331      12.001      27.991
  P       64.690      12.286      29.524
  C       62.497      13.504      30.045
  O       63.912      13.611      29.979
  C       61.856      14.831      30.449
  O       60.412      14.717      30.354
  C       62.200      15.285      31.874
  O       62.353      16.708      31.840
  C       60.963      14.900      32.663
  O       60.833      15.646      33.865
  C       59.870      15.147      31.618
  N       58.632      14.449      31.931
  C       57.920      14.895      33.046
  O       58.406      15.748      33.790
  N       56.686      14.350      33.294
  C       56.289      13.323      32.607
  N       55.033      12.857      32.839
  C       57.131      12.670      31.585
  C       58.259      13.303      31.269
  O       66.148      12.283      29.843
  O       63.929      11.127      30.328
  H       64.568      10.668      30.907
  H       60.048      15.322      34.355
  H       56.813      11.745      31.127
  H       58.931      12.918      30.511
  H       59.657      16.220      31.529
  H       61.009      13.837      32.925
  H       63.119      14.831      32.254
  H       62.168      15.594      29.726
  H       54.471      13.355      33.518
  H       62.247      12.746      30.791
  H       54.531      12.290      32.157
  H       62.104      13.164      29.080
  P       63.529      17.368      32.711
  C       62.025      18.919      34.147
  O       63.043      18.823      33.173
  O       64.610      17.723      31.575
  O       64.157      16.500      33.752
  H       65.496      17.755      31.980
  H       61.776      19.974      34.288
  H       62.371      18.513      35.101
  H       61.127      18.388      33.821
  H       63.208      11.067      26.571
  H       62.363      11.478      28.044
  H       63.492      10.145      28.028

 3  4  5  6  7  8  9  10  11  12  13  24  27  28  29  30  32 0
 6-311+G(2d,p)
 ****
 34  35 0
 6-311+G(2d,p)
 ****
 1  2  14  15  16  17  18  19  20  21  22  23  25  26 0
 3-21G
 ****
 31  33  36  37  38  39  40  41  42  43  44  45  46 0
 3-21G
 ****


