%nproc=1
%NoSave
%Mem=1900MB
#P OB98/GEN NMR

erre ene a

0 1
  C      550.924    -706.136    -707.435
  O      549.610    -705.859    -706.997
  H      550.880    -706.844    -708.275
  H      551.510    -706.586    -706.627
  H      551.415    -705.220    -707.772
  P      549.475    -704.922    -705.699
  C      547.208    -703.996    -706.619
  O      547.884    -704.687    -705.570
  C      545.711    -703.948    -706.312
  O      545.095    -705.224    -706.573
  C      545.378    -703.618    -704.868
  O      545.497    -702.233    -704.576
  C      543.935    -704.096    -704.789
  O      543.083    -703.132    -705.449
  C      544.018    -705.412    -705.605
  N      544.277    -706.578    -704.764
  C      543.263    -706.930    -703.861
  O      542.223    -706.270    -703.781
  N      543.465    -708.011    -703.038
  C      544.572    -708.695    -703.119
  N      544.719    -709.753    -702.255
  C      545.640    -708.372    -704.066
  C      545.441    -707.322    -704.858
  O      549.999    -703.494    -706.207
  O      550.140    -705.417    -704.453
  H      542.174    -703.493    -705.425
  H      549.831    -702.808    -705.511
  H      546.553    -708.978    -704.079
  H      546.182    -707.019    -705.572
  H      543.097    -705.584    -706.174
  H      543.570    -704.207    -703.774
  H      545.985    -704.211    -704.166
  H      545.242    -703.224    -707.013
  H      543.983    -709.903    -701.581
  H      547.386    -704.536    -707.561
  H      545.606    -710.227    -702.118
  H      547.594    -702.984    -706.714
  P      546.413    -701.809    -703.312
  C      546.933    -699.429    -704.230
  O      546.341    -700.207    -703.199
  O      547.910    -702.072    -703.837
  O      546.120    -702.552    -702.047
  H      548.467    -702.446    -703.139
  H      546.803    -698.390    -704.012
  H      546.464    -699.659    -705.164
  H      547.978    -699.653    -704.290

 6  7  8  9  10  11  12  13  14  15  16  26  30  31  32  33  35 0
 6-311+G(2d,p)
 ****
 37  38 0
 6-311+G(2d,p)
 ****
 1  2  3  4  5  17  18  19  20  21  22  23  24  25 0
 3-21G
 ****
 27  28  29  34  36  39  40  41  42  43  44  45  46 0
 3-21G
 ****


