%nproc=1
%NoSave
%Mem=1900MB
#P OB98/GEN NMR

erre ene a

0 1
  C      -84.519    -598.037     168.939
  O      -84.647    -598.641     170.227
  P      -86.029    -599.417     170.509
  C      -87.007    -597.537     172.015
  O      -87.151    -598.308     170.819
  C      -88.142    -596.516     172.148
  O      -88.112    -595.890     173.470
  C      -88.075    -595.381     171.107
  O      -89.429    -595.043     170.786
  C      -87.404    -594.266     171.899
  O      -87.551    -592.993     171.287
  C      -88.088    -594.450     173.244
  N      -88.441    -590.583     176.563
  C      -89.273    -591.025     175.579
  N      -89.100    -592.058     174.736
  C      -87.937    -592.684     174.987
  C      -86.995    -592.365     175.952
  C      -87.287    -591.258     176.773
  N      -86.442    -590.804     177.765
  N      -85.911    -593.234     175.887
  C      -86.175    -594.012     174.850
  N      -87.425    -593.774     174.334
  O      -85.781    -600.130     171.924
  O      -86.397    -600.385     169.436
  H      -88.507    -592.763     171.222
  H      -85.549    -601.070     171.795
  H      -90.190    -590.450     175.462
  H      -85.510    -594.753     174.434
  H      -89.129    -594.101     173.237
  H      -86.331    -594.473     171.970
  H      -87.542    -595.659     170.188
  H      -89.101    -597.052     172.063
  H      -86.048    -597.021     172.015
  H      -86.732    -589.993     178.295
  H      -85.564    -591.264     177.938
  H      -86.986    -598.221     172.878
  P      -89.913    -595.145     169.260
  C      -89.645    -592.638     168.781
  O      -89.154    -593.937     168.515
  O      -91.400    -594.557     169.382
  O      -89.831    -596.500     168.636
  H      -91.411    -593.704     169.857
  H      -88.995    -591.909     168.277
  H      -89.625    -592.442     169.860
  H      -90.664    -592.526     168.398
  H      -83.567    -597.553     168.865
  H      -85.297    -597.315     168.805
  H      -84.596    -598.790     168.183

 3  4  5  6  7  8  9  10  11  12  22  25  29  30  31  32 0
 6-311+G(2d,p)
 ****
 33  36  37 0
 6-311+G(2d,p)
 ****
 1  2  13  14  15  16  17  18  19  20  21  23  24  26 0
 3-21G
 ****
 27  28  34  35  38  39  40  41  42  43  44  45  46  47  48 0
 3-21G
 ****


