%nproc=1
%NoSave
%Mem=1900MB
#P OB98/GEN NMR

erre ene a

0 1
  C       10.221    -389.403    -344.359
  O       11.020    -388.579    -345.183
  H        9.606    -390.051    -344.992
  H        9.560    -388.773    -343.755
  H       10.837    -390.024    -343.708
  P       12.270    -387.843    -344.497
  C       13.037    -387.329    -346.921
  O       12.875    -386.840    -345.600
  C       12.759    -386.217    -347.937
  O       11.318    -386.083    -348.094
  C       13.320    -384.847    -347.534
  O       13.783    -384.171    -348.716
  C       12.088    -384.119    -347.023
  O       12.230    -382.706    -347.085
  C       11.024    -384.681    -347.954
  N        6.617    -382.514    -349.012
  C        7.717    -382.747    -349.813
  N        7.663    -382.290    -351.080
  N        8.784    -383.388    -349.408
  C        8.697    -383.817    -348.126
  C        7.674    -383.637    -347.227
  C        6.502    -382.918    -347.682
  O        5.510    -382.653    -347.014
  N        7.993    -384.169    -346.001
  C        9.220    -384.639    -346.155
  N        9.688    -384.449    -347.428
  O       13.362    -389.010    -344.406
  O       11.996    -387.230    -343.164
  H       12.283    -382.443    -348.024
  H       13.320    -389.435    -343.527
  H        5.828    -382.004    -349.372
  H        9.812    -385.105    -345.376
  H       11.052    -384.220    -348.955
  H       11.897    -384.405    -345.984
  H        6.865    -381.821    -351.483
  H       14.128    -384.898    -346.797
  H        8.441    -382.494    -351.696
  H       13.162    -386.534    -348.913
  H       12.328    -388.149    -347.086
  H       14.050    -387.713    -347.049
  P       15.360    -383.938    -348.886
  C       15.586    -384.032    -351.475
  O       15.625    -383.235    -350.301
  O       15.919    -385.426    -349.105
  O       16.005    -383.280    -347.707
  H       16.806    -385.510    -348.698
  H       15.782    -383.418    -352.329
  H       14.619    -384.479    -351.571
  H       16.329    -384.800    -351.410

 6  7  8  9  10  11  12  13  14  15  26  29  33  34 0
 6-311+G(2d,p)
 ****
 36  38  39  40  41 0
 6-311+G(2d,p)
 ****
 1  2  3  4  5  16  17  18  19  20  21  22  23  24  25 0
 3-21G
 ****
 27  28  30  31  32  35  37  42  43  44  45  46  47 0
 3-21G
 ****
 48  49 0
 3-21G
 ****


