%nproc=1
%NoSave
%Mem=1900MB
#P OB98/GEN NMR

erre ene a

0 1
  C     -374.713    -333.714     376.481
  O     -375.277    -334.645     375.578
  H     -373.712    -333.414     376.145
  H     -375.349    -332.824     376.520
  H     -374.651    -334.154     377.483
  P     -374.427    -335.974     375.301
  C     -372.187    -336.521     374.109
  O     -373.133    -335.521     374.463
  C     -371.472    -336.135     372.827
  O     -370.545    -335.045     373.073
  C     -370.630    -337.241     372.199
  O     -371.427    -338.173     371.479
  C     -369.740    -336.433     371.275
  O     -370.449    -336.118     370.066
  C     -369.491    -335.145     372.079
  N     -364.512    -333.951     371.695
  C     -365.538    -333.851     370.817
  N     -366.828    -334.201     370.985
  C     -367.033    -334.680     372.217
  C     -366.090    -334.855     373.226
  C     -364.769    -334.468     372.919
  N     -363.733    -334.597     373.819
  N     -366.667    -335.371     374.358
  C     -367.943    -335.515     374.056
  N     -368.210    -335.123     372.762
  O     -375.312    -336.765     374.219
  O     -374.150    -336.815     376.501
  H     -370.578    -336.952     369.581
  H     -375.233    -337.720     374.388
  H     -365.278    -333.431     369.853
  H     -368.700    -335.896     374.725
  H     -369.561    -334.255     371.452
  H     -368.823    -336.953     370.984
  H     -370.008    -337.741     372.959
  H     -372.223    -335.769     372.104
  H     -372.708    -337.475     373.955
  H     -362.864    -334.124     373.622
  H     -363.938    -334.972     374.741
  H     -371.465    -336.634     374.927
  P     -370.763    -339.595     371.122
  C     -369.262    -340.459     369.191
  O     -369.897    -339.335     369.791
  O     -372.008    -340.449     370.590
  O     -370.059    -340.269     372.256
  H     -371.835    -341.400     370.720
  H     -368.725    -340.143     368.321
  H     -370.002    -341.179     368.911
  H     -368.582    -340.899     369.890

 6  7  8  9  10  11  12  13  14  15  25  28  32  33  34  35 0
 6-311+G(2d,p)
 ****
 36  39  40 0
 6-311+G(2d,p)
 ****
 1  2  3  4  5  16  17  18  19  20  21  22  23  24 0
 3-21G
 ****
 26  27  29  30  31  37  38  41  42  43  44  45  46  47  48 0
 3-21G
 ****


