%nproc=1
%NoSave
%Mem=1900MB
#P OB98/GEN NMR

erre ene a

0 1
  C       58.403    -249.007    -415.659
  O       59.218    -249.372    -414.568
  H       58.770    -249.525    -416.552
  H       58.453    -247.933    -415.838
  H       57.367    -249.309    -415.479
  P       59.025    -248.612    -413.162
  C       60.163    -246.588    -412.075
  O       59.911    -247.270    -413.297
  C       60.175    -245.069    -412.272
  O       61.194    -244.711    -413.244
  C       58.843    -244.500    -412.774
  O       58.497    -243.344    -412.002
  C       59.135    -244.106    -414.216
  O       58.252    -243.091    -414.688
  C       60.616    -243.725    -414.120
  N       61.281    -243.698    -415.418
  C       60.981    -242.616    -416.251
  O       60.164    -241.767    -415.896
  N       61.585    -242.541    -417.480
  C       62.375    -243.488    -417.875
  N       62.933    -243.362    -419.107
  C       62.686    -244.678    -417.042
  C       62.119    -244.709    -415.835
  O       59.322    -249.441    -411.959
  O       57.524    -248.058    -413.210
  H       58.540    -242.827    -415.593
  H       57.219    -247.863    -412.288
  H       63.344    -245.445    -417.414
  H       62.295    -245.535    -415.157
  H       60.734    -242.739    -413.649
  H       59.018    -244.987    -414.861
  H       58.020    -245.209    -412.714
  H       60.478    -244.600    -411.328
  H       62.694    -242.534    -419.642
  H       61.127    -246.929    -411.675
  H       63.560    -244.041    -419.516
  H       59.370    -246.847    -411.364
  P       57.071    -243.384    -411.265
  C       54.723    -242.367    -411.684
  O       56.001    -242.673    -412.235
  O       57.253    -242.334    -410.068
  O       56.689    -244.740    -410.768
  H       57.427    -242.808    -409.233
  H       54.115    -241.901    -412.431
  H       54.842    -241.701    -410.855
  H       54.252    -243.269    -411.353

 6  7  8  9  10  11  12  13  14  15  16  26  30  31  32  33  35 0
 6-311+G(2d,p)
 ****
 37  38 0
 6-311+G(2d,p)
 ****
 1  2  3  4  5  17  18  19  20  21  22  23  24  25 0
 3-21G
 ****
 27  28  29  34  36  39  40  41  42  43  44  45  46 0
 3-21G
 ****


