%nproc=1
%NoSave
%Mem=1900MB
#P OB98/GEN NMR

erre ene a

0 1
  C      178.097    -197.924     236.662
  O      177.420    -197.514     235.471
  P      177.502    -198.519     234.216
  C      177.268    -196.566     232.511
  O      176.763    -197.810     232.979
  C      176.182    -195.782     231.780
  O      175.562    -196.583     230.755
  C      175.031    -195.324     232.669
  O      175.371    -194.161     233.410
  C      173.960    -195.016     231.634
  O      174.167    -193.697     231.093
  C      174.217    -196.089     230.558
  N      169.630    -197.815     229.265
  C      170.223    -196.595     229.006
  N      169.499    -195.721     228.266
  N      171.418    -196.261     229.428
  C      172.034    -197.247     230.127
  C      171.553    -198.491     230.448
  C      170.216    -198.839     230.005
  O      169.634    -199.891     230.236
  N      172.476    -199.221     231.164
  C      173.519    -198.419     231.241
  N      173.300    -197.207     230.640
  O      176.487    -199.691     234.629
  O      178.876    -199.040     233.943
  H      175.118    -193.621     230.888
  H      176.746    -200.526     234.194
  H      168.707    -198.018     228.925
  H      174.460    -198.676     231.718
  H      174.168    -195.669     229.549
  H      172.951    -195.030     232.056
  H      168.607    -195.942     227.852
  H      174.692    -196.143     233.321
  H      169.935    -194.836     228.038
  H      176.652    -194.911     231.301
  H      178.108    -196.740     231.833
  H      177.658    -195.997     233.363
  P      174.771    -194.034     234.890
  C      174.137    -191.516     234.944
  O      175.055    -192.523     235.337
  O      175.790    -194.896     235.774
  O      173.360    -194.511     235.036
  H      175.337    -195.267     236.555
  H      173.104    -191.848     235.060
  H      174.322    -191.250     233.897
  H      174.296    -190.628     235.569
  H      177.970    -197.178     237.419
  H      179.139    -198.049     236.455
  H      177.688    -198.852     237.003

 3  4  5  6  7  8  9  10  11  12  23  26  30  31  33  0
 6-311+G(2d,p)
 ****
 35  36  37  38 0
 6-311+G(2d,p)
 ****
 1  2  13  14  15  16  17  18  19  20  21  22  24  25  27  28  29 0
 3-21G
 ****
 32  34  39  40  41  42  43  44  45  46  47  48  49 0
 3-21G
 ****


