%nproc=1
%NoSave
%Mem=1900MB
#P OB98/GEN NMR

erre ene a

0 1
  C      -88.054     145.911     272.002
  O      -89.135     146.071     272.926
  P      -89.036     147.281     273.979
  C      -87.664     145.836     275.673
  O      -87.723     146.993     274.858
  C      -86.496     145.922     276.666
  O      -86.619     147.142     277.460
  C      -86.400     144.739     277.640
  O      -85.001     144.478     277.835
  C      -87.018     145.289     278.913
  O      -86.594     144.567     280.064
  C      -86.540     146.749     278.845
  N      -87.322     147.639     279.702
  C      -87.110     147.544     281.071
  O      -86.360     146.709     281.575
  N      -87.820     148.415     281.851
  C      -88.761     149.299     281.409
  O      -89.370     150.059     282.152
  C      -89.027     149.271     279.958
  C      -88.313     148.456     279.192
  O      -90.253     146.951     274.961
  O      -89.090     148.623     273.325
  H      -90.383     145.999     275.116
  H      -86.901     145.039     280.865
  H      -87.651     148.391     282.849
  H      -89.811     149.923     279.577
  H      -88.497     148.400     278.121
  H      -85.490     146.823     279.149
  H      -88.110     145.238     278.853
  H      -86.896     143.836     277.267
  H      -85.571     146.002     276.084
  H      -87.529     144.945     275.050
  H      -88.626     145.713     276.205
  P      -84.424     143.049     277.368
  C      -84.612     141.723     279.623
  O      -85.090     141.946     278.313
  O      -82.927     143.158     277.951
  O      -84.456     142.799     275.897
  H      -82.894     143.468     278.862
  H      -85.335     141.115     280.171
  H      -84.479     142.671     280.154
  H      -83.656     141.186     279.589
  H      -88.250     145.074     271.365
  H      -87.145     145.743     272.542
  H      -87.958     146.796     271.408

 3  4  5  6  7  8  9  10  11  12  13  24  28  29  30  31  32 0
 6-311+G(2d,p)
 ****
 33  34 0
 6-311+G(2d,p)
 ****
 1  2  14  15  16  17  18  19  20  21  22  23  25  26  27 0
 3-21G
 ****
 35  36  37  38  39  40  41  42  43  44  45 0
 3-21G
 ****


