%nproc=1
%NoSave
%Mem=1900MB
#P OB98/GEN NMR

erre ene a

0 1
  C       72.585     145.288     -17.452
  O       73.066     144.055     -17.949
  H       71.718     145.095     -16.816
  H       72.281     145.947     -18.269
  H       73.357     145.777     -16.850
  P       74.175     144.090     -19.110
  C       75.107     141.698     -18.821
  O       75.337     143.092     -18.624
  C       76.149     140.860     -18.079
  O       76.026     141.060     -16.656
  C       75.991     139.362     -18.286
  O       76.302     138.924     -19.591
  C       76.750     138.785     -17.099
  O       78.147     138.643     -17.334
  C       76.510     139.862     -16.014
  N       75.601     139.397     -14.973
  C       76.001     139.643     -13.665
  O       77.062     140.196     -13.370
  N       75.158     139.192     -12.687
  C       74.006     138.490     -12.889
  O       73.313     138.075     -11.968
  C       73.647     138.237     -14.293
  C       74.448     138.695     -15.259
  O       74.669     145.451     -19.498
  O       73.491     143.289     -20.313
  H       78.505     138.094     -16.610
  H       73.954     143.464     -21.167
  H       75.427     139.370     -11.733
  H       72.740     137.681     -14.491
  H       74.206     138.520     -16.304
  H       77.459     140.133     -15.532
  H       76.370     137.799     -16.822
  H       74.937     139.107     -18.127
  H       77.146     141.199     -18.384
  H       75.182     141.498     -19.895
  H       74.097     141.441     -18.484
  P       75.212     138.331     -20.600
  C       76.469     139.252     -22.679
  O       75.249     139.207     -21.949
  O       73.885     137.968     -20.018
  O       75.927     136.961     -21.067
  H       75.223     136.299     -21.210
  H       76.344     139.868     -23.545
  H       76.741     138.262     -22.981
  H       77.240     139.660     -22.060

 6  7  8  9  10  11  12  13  14  15  16  26  31  32  33  34  35 0
 6-311+G(2d,p)
 ****
 36  37 0
 6-311+G(2d,p)
 ****
 1  2  3  4  5  17  18  19  20  21  22  23  24  25 0
 3-21G
 ****
 27  28  29  30  38  39  40  41  42  43  44  45 0
 3-21G
 ****


