%nproc=1
%NoSave
%Mem=1900MB
#P OB98/GEN NMR

erre ene a

0 1
  C     -439.744    -552.925      10.336
  O     -439.468    -552.593       8.983
  P     -438.357    -551.477       8.686
  C     -436.473    -553.201       8.196
  O     -436.918    -552.112       8.999
  C     -435.132    -552.871       7.521
  O     -434.142    -552.573       8.547
  C     -434.573    -554.017       6.661
  O     -433.869    -553.467       5.548
  C     -433.560    -554.672       7.572
  O     -432.573    -555.384       6.827
  C     -433.013    -553.459       8.329
  N     -428.975    -552.696      11.278
  C     -429.421    -551.964      10.193
  N     -428.633    -550.946       9.786
  N     -430.534    -552.215       9.561
  C     -431.222    -553.262      10.070
  C     -430.895    -554.056      11.155
  C     -429.651    -553.786      11.838
  O     -429.183    -554.407      12.789
  N     -431.846    -555.008      11.390
  C     -432.749    -554.825      10.439
  N     -432.395    -553.805       9.589
  O     -438.572    -550.428       9.881
  O     -438.483    -550.811       7.358
  H     -432.236    -554.783       6.140
  H     -439.021    -549.626       9.542
  H     -428.104    -552.470      11.714
  H     -433.645    -555.410      10.294
  H     -432.284    -552.901       7.723
  H     -434.054    -555.377       8.250
  H     -427.725    -550.746      10.184
  H     -435.339    -554.727       6.311
  H     -428.911    -550.419       8.969
  H     -435.261    -551.963       6.933
  H     -437.220    -553.395       7.422
  H     -436.377    -554.110       8.811
  P     -433.617    -554.463       4.318
  C     -434.967    -552.906       2.731
  O     -434.803    -554.199       3.274
  O     -433.970    -555.901       4.935
  O     -432.236    -554.406       3.757
  H     -433.492    -556.604       4.451
  H     -434.813    -552.961       1.653
  H     -434.253    -552.187       3.152
  H     -435.989    -552.554       2.926
  H     -440.502    -553.679      10.371
  H     -440.084    -552.053      10.855
  H     -438.854    -553.293      10.802

 3  4  5  6  7  8  9  10  11  12  23  26  30  31 0
 6-311+G(2d,p)
 ****
 33  35  36  37  38 0
 6-311+G(2d,p)
 ****
 1  2  13  14  15  16  17  18  19  20  21  22  24  25 0
 3-21G
 ****
 27  28  29  32  34  39  40  41  42  43  44  45  46  47  48  49 0
 3-21G
 ****


