%nproc=1
%NoSave
%Mem=1900MB
#P OB98/GEN NMR

erre ene a

0 1
  C        1.641    -891.460     395.584
  O        0.796    -892.590     395.650
  P        1.501    -894.020     395.996
  C       -0.740    -894.770     397.065
  O        0.341    -895.100     396.209
  C       -2.071    -895.230     396.434
  O       -2.367    -894.490     395.222
  C       -2.081    -896.690     396.023
  O       -2.310    -897.550     397.111
  C       -3.276    -896.720     395.064
  O       -4.502    -896.840     395.832
  C       -3.200    -895.340     394.385
  N       -3.598    -893.710     389.598
  C       -4.417    -893.470     390.699
  N       -5.461    -892.630     390.493
  N       -4.200    -893.990     391.884
  C       -3.103    -894.760     391.957
  C       -2.224    -895.100     390.929
  C       -2.482    -894.570     389.616
  O       -1.802    -894.770     388.605
  N       -1.209    -895.910     391.373
  C       -1.458    -896.060     392.668
  N       -2.601    -895.380     393.058
  O        2.068    -893.780     397.479
  O        2.584    -894.390     395.030
  H       -4.484    -897.720     396.251
  H        2.851    -894.350     397.632
  H       -3.804    -893.300     388.713
  H       -0.847    -896.610     393.365
  H       -4.174    -894.850     394.318
  H       -3.253    -897.580     394.369
  H       -5.628    -892.150     389.606
  H       -1.172    -896.960     395.480
  H       -6.030    -892.410     391.303
  H       -2.869    -895.020     397.163
  H       -0.786    -893.680     397.196
  H       -0.591    -895.220     398.037
  P       -1.776    -899.080     396.988
  C       -0.960    -899.400     399.440
  O       -1.933    -899.710     398.477
  O       -0.194    -898.890     396.808
  O       -2.392    -899.830     395.877
  H        0.158    -899.640     396.279
  H       -0.703    -898.340     399.398
  H       -0.049    -900.000     399.251
  H       -1.362    -899.650     400.422
  H        1.059    -890.593     395.351
  H        2.378    -891.610     394.823
  H        2.126    -891.322     396.528

 3  4  5  6  7  8  9  10  11  12  23  26  30  31  33  0
 6-311+G(2d,p)
 ****
 35  36  37  38 0
 6-311+G(2d,p)
 ****
 1  2  13  14  15  16  17  18  19  20  21  22  24  25  27  28  29 0
 3-21G
 ****
 32  34  39  40  41  42  43  44  45  46  47  48  49 0
 3-21G
 ****


