%nproc=1
%NoSave
%Mem=1900MB
#P OB98/GEN NMR

erre ene a

0 1
  C      702.794    -620.300    -107.090
  O      702.008    -620.066    -105.936
  P      701.088    -618.745    -105.917
  C      701.682    -616.219    -106.115
  O      702.107    -617.518    -105.727
  C      702.562    -615.142    -105.462
  O      703.947    -615.415    -105.739
  C      702.301    -613.738    -105.984
  O      701.177    -613.126    -105.356
  C      703.592    -613.041    -105.542
  O      703.535    -612.710    -104.149
  C      704.631    -614.136    -105.788
  N      708.123    -611.501    -108.441
  C      707.626    -611.330    -107.210
  N      706.686    -612.068    -106.581
  C      706.227    -613.052    -107.384
  C      706.620    -613.311    -108.689
  C      707.635    -612.500    -109.220
  N      708.161    -612.692    -110.483
  N      705.930    -614.405    -109.187
  C      705.155    -614.786    -108.188
  N      705.303    -614.012    -107.078
  O      700.352    -618.841    -104.510
  O      700.139    -618.617    -107.055
  H      702.948    -611.933    -104.069
  H      699.521    -618.310    -104.529
  H      708.039    -610.491    -106.647
  H      704.466    -615.621    -108.241
  H      705.418    -614.147    -105.017
  H      703.767    -612.112    -106.091
  H      702.232    -613.708    -107.070
  H      702.392    -615.200    -104.379
  H      700.640    -616.076    -105.796
  H      708.996    -612.178    -110.716
  H      707.934    -613.550    -110.955
  H      701.732    -616.137    -107.213
  P      700.352    -612.070    -106.237
  C      700.869    -609.638    -107.031
  O      701.138    -610.696    -106.102
  O      699.022    -611.843    -105.371
  O      700.055    -612.532    -107.621
  H      698.286    -611.566    -105.939
  H      701.244    -608.700    -106.602
  H      699.774    -609.545    -107.187
  H      701.363    -609.857    -107.963
  H      703.350    -621.206    -106.965
  H      703.470    -619.483    -107.233
  H      702.156    -620.388    -107.944

 3  4  5  6  7  8  9  10  11  12  22  25  29  30  31  32 0
 6-311+G(2d,p)
 ****
 33  36  37 0
 6-311+G(2d,p)
 ****
 1  2  13  14  15  16  17  18  19  20  21  23  24  26 0
 3-21G
 ****
 27  28  34  35  38  39  40  41  42  43  44  45  46  47  48 0
 3-21G
 ****


