%nproc=1
%NoSave
%Mem=1900MB
#P OB98/GEN NMR

erre ene a

0 1
  C      815.853     -42.373      -6.504
  O      814.725     -43.022      -7.062
  P      813.359     -42.186      -7.173
  C      812.078     -44.133      -8.336
  O      812.168     -43.270      -7.209
  C      811.002     -45.187      -8.105
  O      811.449     -46.182      -7.163
  C      809.704     -44.639      -7.515
  O      808.870     -44.046      -8.503
  C      809.067     -45.907      -6.970
  O      808.429     -46.636      -8.037
  C      810.290     -46.680      -6.447
  N      812.168     -48.782      -2.246
  C      812.319     -49.164      -3.570
  N      813.012     -50.297      -3.791
  N      811.827     -48.492      -4.579
  C      811.148     -47.383      -4.199
  C      810.940     -46.899      -2.923
  C      811.476     -47.658      -1.819
  O      811.336     -47.407      -0.625
  N      810.208     -45.745      -2.941
  C      809.971     -45.515      -4.218
  N      810.483     -46.508      -5.021
  O      813.383     -41.622      -8.666
  O      813.209     -41.102      -6.158
  H      807.592     -46.173      -8.231
  H      812.751     -40.887      -8.755
  H      812.564     -49.340      -1.508
  H      809.427     -44.666      -4.609
  H      810.207     -47.751      -6.652
  H      808.300     -45.708      -6.213
  H      813.364     -50.894      -3.056
  H      809.903     -43.943      -6.689
  H      813.080     -50.640      -4.747
  H      810.794     -45.694      -9.060
  H      813.041     -44.621      -8.494
  H      811.841     -43.535      -9.228
  P      807.672     -43.123      -7.968
  C      806.503     -43.881     -10.164
  O      806.372     -43.600      -8.783
  O      808.015     -41.690      -8.589
  O      807.532     -43.076      -6.479
  H      807.637     -40.976      -8.043
  H      805.615     -44.429     -10.497
  H      807.386     -44.488     -10.363
  H      806.566     -42.941     -10.730
  H      816.684     -43.047      -6.494
  H      815.630     -42.067      -5.503
  H      816.098     -41.514      -7.093

 3  4  5  6  7  8  9  10  11  12  23  26  30  31 0
 6-311+G(2d,p)
 ****
 33  35  36  37  38 0
 6-311+G(2d,p)
 ****
 1  2  13  14  15  16  17  18  19  20  21  22  24  25 0
 3-21G
 ****
 27  28  29  32  34  39  40  41  42  43  44  45  46  47  48  49 0
 3-21G
 ****


