%nproc=1
%NoSave
%Mem=1900MB
#P OB98/GEN NMR

erre ene a

0 1
  C       87.186    -147.899     -33.357
  O       86.575    -147.357     -34.510
  P       85.373    -146.309     -34.384
  C       83.593    -148.151     -34.429
  O       84.077    -146.973     -35.063
  C       82.071    -148.128     -34.303
  O       81.615    -149.424     -33.821
  C       81.521    -147.065     -33.341
  O       80.269    -146.626     -33.881
  C       81.279    -147.856     -32.067
  O       80.354    -147.224     -31.189
  C       80.798    -149.177     -32.656
  N       78.274    -152.818     -30.102
  C       77.844    -151.832     -30.919
  N       78.578    -150.885     -31.540
  C       79.882    -151.028     -31.252
  C       80.466    -151.964     -30.414
  C       79.600    -152.909     -29.834
  N       80.024    -153.941     -29.025
  N       81.828    -151.749     -30.326
  C       82.060    -150.706     -31.096
  N       80.924    -150.277     -31.726
  O       85.681    -144.926     -34.852
  O       85.010    -146.322     -32.825
  H       79.479    -147.212     -31.621
  H       85.334    -145.503     -32.402
  H       76.775    -151.802     -31.100
  H       83.018    -150.225     -31.233
  H       79.752    -149.127     -32.981
  H       82.226    -147.982     -31.527
  H       82.194    -146.214     -33.187
  H       81.645    -147.992     -35.305
  H       84.036    -148.204     -33.431
  H       79.340    -154.637     -28.774
  H       81.011    -154.191     -29.025
  H       83.911    -149.034     -34.996
  P       80.016    -145.067     -34.154
  C       79.571    -144.387     -31.726
  O       79.011    -144.562     -33.016
  O       79.629    -144.718     -35.554
  O       81.407    -144.386     -33.736
  H       81.460    -143.488     -34.122
  H       79.639    -145.357     -31.226
  H       78.922    -143.730     -31.142
  H       80.568    -143.940     -31.787
  H       87.963    -148.575     -33.649
  H       86.455    -148.425     -32.779
  H       87.603    -147.108     -32.769

 3  4  5  6  7  8  9  10  11  12  22  25  29  30  31  32 0
 6-311+G(2d,p)
 ****
 33  36  37 0
 6-311+G(2d,p)
 ****
 1  2  13  14  15  16  17  18  19  20  21  23  24  26 0
 3-21G
 ****
 27  28  34  35  38  39  40  41  42  43  44  45  46  47  48 0
 3-21G
 ****


