%nproc=1
%NoSave
%Mem=1900MB
#P OB98/GEN NMR

erre ene a

0 1
  C     -312.799    1334.897     -61.369
  O     -313.421    1336.112     -60.980
  P     -314.338    1336.084     -59.666
  C     -312.929    1337.955     -58.494
  O     -314.215    1337.530     -58.979
  C     -313.056    1339.323     -57.833
  O     -313.550    1340.295     -58.776
  C     -314.037    1339.372     -56.661
  O     -313.482    1338.764     -55.501
  C     -314.261    1340.875     -56.545
  O     -313.150    1341.496     -55.856
  C     -314.275    1341.312     -58.019
  N     -318.037    1344.535     -59.286
  C     -316.832    1344.738     -58.729
  N     -315.891    1343.826     -58.403
  C     -316.313    1342.591     -58.709
  C     -317.526    1342.233     -59.257
  C     -318.427    1343.260     -59.553
  N     -319.662    1343.073     -60.106
  N     -317.604    1340.856     -59.400
  C     -316.454    1340.399     -58.976
  N     -315.616    1341.419     -58.557
  O     -313.523    1335.128     -58.670
  O     -315.742    1335.606     -59.887
  H     -313.282    1342.463     -55.902
  H     -314.137    1334.607     -58.118
  H     -316.569    1345.792     -58.526
  H     -316.160    1339.365     -58.947
  H     -313.781    1342.260     -58.172
  H     -315.177    1341.130     -56.005
  H     -314.978    1338.871     -56.916
  H     -312.052    1339.622     -57.497
  H     -312.241    1338.028     -59.353
  H     -320.307    1343.838     -60.157
  H     -320.004    1342.104     -60.186
  H     -312.541    1337.204     -57.803
  P     -314.485    1338.121     -54.430
  C     -313.713    1335.677     -54.414
  O     -313.640    1336.931     -53.753
  O     -315.512    1337.336     -55.388
  O     -315.110    1339.098     -53.480
  H     -315.049    1336.800     -56.044
  H     -313.086    1334.983     -53.894
  H     -313.380    1335.781     -55.451
  H     -314.746    1335.293     -54.380
  H     -312.222    1335.060     -62.255
  H     -313.549    1334.158     -61.562
  H     -312.158    1334.557     -60.583

 3  4  5  6  7  8  9  10  11  12  22  25  29  30  31  32 0
 6-311+G(2d,p)
 ****
 33  36  37 0
 6-311+G(2d,p)
 ****
 1  2  13  14  15  16  17  18  19  20  21  23  24  26 0
 3-21G
 ****
 27  28  34  35  38  39  40  41  42  43  44  45  46  47  48 0
 3-21G
 ****


