%nproc=1
%NoSave
%Mem=1900MB
#P OB98/GEN NMR

erre ene a

0 1
  C       15.147    -547.521     193.456
  O       14.038    -548.365     193.690
  H       15.602    -547.268     194.417
  H       14.822    -546.595     192.972
  H       15.895    -548.021     192.836
  P       13.280    -549.009     192.433
  C       12.093    -548.088     190.336
  O       12.590    -547.802     191.637
  C       10.994    -547.094     189.969
  O       11.425    -545.745     190.257
  C       10.621    -547.104     188.494
  O        9.813    -548.221     188.177
  C        9.926    -545.757     188.365
  O        8.567    -545.834     188.826
  C       10.778    -544.872     189.300
  N       11.755    -544.059     188.581
  C       11.307    -542.838     188.093
  O       10.145    -542.450     188.213
  N       12.236    -542.083     187.427
  C       13.505    -542.470     187.112
  O       14.270    -541.792     186.434
  C       13.919    -543.781     187.632
  C       13.041    -544.503     188.335
  O       12.382    -550.159     192.740
  O       14.473    -549.443     191.456
  H        8.598    -546.280     189.695
  H       14.587    -550.411     191.495
  H       11.924    -541.201     187.052
  H       14.923    -544.118     187.417
  H       13.326    -545.474     188.722
  H       10.133    -544.200     189.882
  H        9.895    -545.404     187.334
  H       11.526    -547.093     187.876
  H       10.116    -547.306     190.596
  H       11.682    -549.103     190.332
  H       12.919    -548.038     189.619
  P        9.439    -548.527     186.652
  C        8.258    -547.327     184.711
  O        8.726    -547.222     186.050
  O        8.712    -549.809     186.417
  O       10.857    -548.535     185.908
  H       11.006    -549.412     185.504
  H        7.804    -546.403     184.418
  H        7.537    -548.115     184.646
  H        9.081    -547.541     184.061

 6  7  8  9  10  11  12  13  14  15  16  26  31  32  33  34  35 0
 6-311+G(2d,p)
 ****
 36  37 0
 6-311+G(2d,p)
 ****
 1  2  3  4  5  17  18  19  20  21  22  23  24  25 0
 3-21G
 ****
 27  28  29  30  38  39  40  41  42  43  44  45 0
 3-21G
 ****


