%nproc=1
%NoSave
%Mem=1900MB
#P OB98/GEN NMR

erre ene a

0 1
  C       50.479    -295.283     -53.580
  O       49.464    -294.378     -54.015
  P       48.995    -293.203     -53.028
  C       47.770    -294.719     -51.352
  O       48.839    -293.803     -51.546
  C       47.624    -295.144     -49.885
  O       46.315    -295.729     -49.644
  C       48.669    -296.165     -49.416
  O       48.973    -295.858     -48.050
  C       47.912    -297.475     -49.516
  O       48.513    -298.510     -48.753
  C       46.523    -297.025     -49.053
  N       45.479    -297.964     -49.425
  C       45.025    -298.844     -48.443
  O       45.579    -298.875     -47.342
  N       43.980    -299.684     -48.742
  C       43.537    -299.742     -49.959
  N       42.488    -300.571     -50.212
  C       44.115    -298.956     -51.067
  C       45.054    -298.079     -50.726
  O       47.834    -292.393     -53.503
  O       50.313    -292.297     -52.902
  H       47.933    -299.300     -48.776
  H       50.044    -291.361     -52.820
  H       43.766    -299.100     -52.079
  H       45.533    -297.453     -51.463
  H       46.500    -296.894     -47.962
  H       47.880    -297.802     -50.562
  H       49.593    -296.143     -50.001
  H       47.693    -294.241     -49.265
  H       42.118    -301.122     -49.449
  H       47.945    -295.607     -51.966
  H       42.052    -300.634     -51.124
  H       46.844    -294.270     -51.727
  P       50.452    -295.358     -47.676
  C       51.598    -297.690     -47.770
  O       51.497    -296.393     -48.315
  O       50.535    -295.726     -46.115
  O       50.727    -293.903     -47.874
  H       51.192    -295.145     -45.688
  H       52.128    -298.329     -48.481
  H       50.610    -298.123     -47.584
  H       52.165    -297.656     -46.834
  H       50.672    -295.999     -54.351
  H       50.150    -295.790     -52.697
  H       51.375    -294.738     -53.366

 3  4  5  6  7  8  9  10  11  12  13  23  27  28  29  30  32 0
 6-311+G(2d,p)
 ****
 34  35 0
 6-311+G(2d,p)
 ****
 1  2  14  15  16  17  18  19  20  21  22  24  25  26 0
 3-21G
 ****
 31  33  36  37  38  39  40  41  42  43  44  45  46 0
 3-21G
 ****


