%nproc=1
%NoSave
%Mem=1900MB
#P OB98/GEN NMR

erre ene a

0 1
  C      -18.218     -71.977      -9.600
  O      -18.159     -72.527      -8.292
  P      -17.203     -71.799      -7.226
  C      -15.076     -73.114      -6.535
  O      -15.724     -72.337      -7.536
  C      -15.265     -74.601      -6.806
  O      -14.883     -74.902      -8.160
  C      -14.421     -75.516      -5.932
  O      -15.000     -75.709      -4.651
  C      -14.446     -76.803      -6.743
  O      -15.668     -77.518      -6.482
  C      -14.431     -76.280      -8.190
  N      -11.083     -79.172     -10.653
  C      -12.346     -79.480     -10.187
  N      -12.789     -80.731     -10.436
  N      -13.103     -78.641      -9.533
  C      -12.546     -77.415      -9.392
  C      -11.304     -76.989      -9.808
  C      -10.455     -77.944     -10.485
  O       -9.303     -77.747     -10.863
  N      -11.100     -75.670      -9.496
  C      -12.226     -75.288      -8.927
  N      -13.123     -76.320      -8.814
  O      -17.578     -72.525      -5.849
  O      -17.364     -70.321      -7.136
  H      -15.724     -77.643      -5.516
  H      -17.379     -71.934      -5.098
  H      -10.549     -79.851     -11.165
  H      -12.431     -74.283      -8.585
  H      -15.135     -76.834      -8.820
  H      -13.621     -77.479      -6.498
  H      -12.309     -81.376     -11.045
  H      -13.391     -75.150      -5.856
  H      -13.726     -80.964     -10.135
  H      -16.331     -74.836      -6.694
  H      -15.506     -72.873      -5.558
  H      -14.012     -72.857      -6.522
  P      -13.990     -76.057      -3.450
  C      -14.307     -78.460      -2.516
  O      -13.767     -77.641      -3.535
  O      -14.892     -75.862      -2.144
  O      -12.760     -75.216      -3.420
  H      -14.330     -75.645      -1.375
  H      -15.272     -78.081      -2.167
  H      -13.608     -78.505      -1.676
  H      -14.450     -79.468      -2.912
  H      -18.887     -72.557     -10.201
  H      -17.242     -71.992     -10.038
  H      -18.569     -70.968      -9.547

 3  4  5  6  7  8  9  10  11  12  23  26  30  31  33  0
 6-311+G(2d,p)
 ****
 35  36  37  38 0
 6-311+G(2d,p)
 ****
 1  2  13  14  15  16  17  18  19  20  21  22  24  25  27  28  29 0
 3-21G
 ****
 32  34  39  40  41  42  43  44  45  46  47  48  49 0
 3-21G
 ****


