%nproc=1
%NoSave
%Mem=1900MB
#P OB98/GEN NMR

erre ene a

0 1
  C     -915.366     566.247     839.287
  O     -915.103     567.523     839.857
  H     -914.887     565.479     839.900
  H     -914.953     566.177     838.276
  H     -916.442     566.063     839.264
  P     -915.561     568.823     839.038
  C     -915.836     571.270     839.805
  O     -915.954     569.900     840.153
  C     -916.571     572.156     840.816
  O     -917.982     571.844     840.794
  C     -916.107     571.924     842.246
  O     -914.863     572.555     842.485
  C     -917.293     572.505     843.021
  O     -917.224     573.928     843.089
  C     -918.488     572.043     842.146
  N     -919.115     570.816     842.643
  C     -919.995     570.989     843.718
  O     -920.227     572.104     844.174
  N     -920.596     569.855     844.238
  C     -920.346     568.695     843.736
  N     -920.984     567.628     844.311
  C     -919.430     568.472     842.608
  C     -918.843     569.566     842.113
  O     -916.588     568.628     837.979
  O     -914.180     569.406     838.445
  H     -917.995     574.203     843.615
  H     -913.998     569.013     837.568
  H     -919.241     567.477     842.218
  H     -918.163     569.495     841.284
  H     -919.258     572.813     842.088
  H     -917.325     572.109     844.049
  H     -916.058     570.854     842.468
  H     -916.441     573.206     840.512
  H     -921.587     567.802     845.092
  H     -916.265     571.406     838.805
  H     -920.913     566.682     843.957
  H     -914.776     571.570     839.749
  P     -913.894     572.031     843.657
  C     -911.356     572.181     844.084
  O     -912.398     572.268     843.115
  O     -914.188     570.645     844.148
  O     -914.058     573.154     844.778
  H     -914.917     573.078     845.252
  H     -910.413     572.355     843.610
  H     -911.359     571.206     844.525
  H     -911.514     572.917     844.845

 6  7  8  9  10  11  12  13  14  15  16  26  30  31  32  33  35 0
 6-311+G(2d,p)
 ****
 37  38 0
 6-311+G(2d,p)
 ****
 1  2  3  4  5  17  18  19  20  21  22  23  24  25 0
 3-21G
 ****
 27  28  29  34  36  39  40  41  42  43  44  45  46 0
 3-21G
 ****


