%nproc=1
%NoSave
%Mem=1900MB
#P OB98/GEN NMR

erre ene a

0 1
  C      369.624      -2.874     138.926
  O      370.248      -1.608     138.852
  H      368.544      -2.771     138.790
  H      370.019      -3.510     138.130
  H      369.833      -3.343     139.892
  P      369.778      -0.507     139.921
  C      368.226       1.577     139.778
  O      368.701       0.397     139.146
  C      367.465       2.422     138.763
  O      368.313       2.723     137.631
  C      366.235       1.729     138.186
  O      365.105       1.830     139.036
  C      366.036       2.525     136.907
  O      365.437       3.795     137.212
  C      367.486       2.718     136.435
  N      368.407       1.466     131.557
  C      368.001       2.620     132.131
  N      367.799       2.878     133.439
  C      368.074       1.796     134.184
  C      368.503       0.555     133.742
  C      368.667       0.405     132.355
  N      369.049      -0.777     131.763
  N      368.657      -0.313     134.805
  C      368.344       0.398     135.869
  N      367.953       1.670     135.543
  O      371.042       0.468     140.045
  O      369.313      -1.031     141.238
  H      364.636       3.613     137.741
  H      370.952       1.042     140.829
  H      367.808       3.443     131.449
  H      368.373       0.038     136.891
  H      367.638       3.673     135.919
  H      365.378       2.020     136.195
  H      366.447       0.685     137.928
  H      367.195       3.372     139.239
  H      369.081       2.145     140.162
  H      368.995      -0.829     130.758
  H      369.102      -1.609     132.331
  H      367.572       1.306     140.610
  P      364.028       0.639     138.980
  C      361.712       0.298     137.855
  O      362.838       1.149     138.031
  O      363.380       0.677     140.440
  O      364.598      -0.699     138.646
  H      363.113      -0.218     140.726
  H      361.008       0.769     137.202
  H      361.252       0.115     138.803
  H      362.030      -0.630     137.428

 6  7  8  9  10  11  12  13  14  15  25  28  32  33  34  35 0
 6-311+G(2d,p)
 ****
 36  39  40 0
 6-311+G(2d,p)
 ****
 1  2  3  4  5  16  17  18  19  20  21  22  23  24 0
 3-21G
 ****
 26  27  29  30  31  37  38  41  42  43  44  45  46  47 0
 3-21G
 ****
 48 0
 3-21G
 ****


