%nproc=1
%NoSave
%Mem=1900MB
#P OB98/GEN NMR

erre ene a

0 1
  C       -3.083     435.743     400.963
  O       -2.821     437.093     400.605
  P       -2.565     437.415     399.053
  C       -4.852     438.588     398.476
  O       -4.015     437.447     398.368
  C       -5.126     439.173     397.088
  O       -3.936     439.816     396.582
  C       -5.516     438.145     396.035
  O       -6.865     437.728     396.172
  C       -5.216     438.915     394.748
  O       -6.290     439.819     394.445
  C       -3.951     439.704     395.139
  N       -2.715     439.101     394.642
  C       -2.633     438.917     393.263
  O       -3.529     439.236     392.487
  N       -1.478     438.330     392.810
  C       -0.455     437.867     393.587
  O        0.537     437.309     393.130
  C       -0.616     438.056     395.036
  C       -1.720     438.656     395.490
  O       -1.914     436.037     398.568
  O       -1.719     438.626     398.838
  H       -2.210     435.286     399.115
  H       -7.083     439.267     394.308
  H       -1.385     438.209     391.814
  H        0.172     437.695     395.684
  H       -1.857     438.799     396.552
  H       -4.011     440.731     394.759
  H       -5.087     438.258     393.883
  H       -4.852     437.272     396.100
  H       -5.905     439.940     397.183
  H       -4.353     439.341     399.098
  H       -5.790     438.299     398.962
  P       -7.226     436.270     395.608
  C       -6.385     435.004     397.737
  O       -6.248     435.243     396.352
  O       -6.646     436.357     394.118
  O       -8.683     435.940     395.688
  H       -5.781     436.796     394.078
  H       -5.902     434.056     397.978
  H       -7.438     434.949     398.030
  H       -5.891     435.805     398.296
  H       -3.233     435.677     402.020
  H       -2.251     435.132     400.682
  H       -3.962     435.404     400.456

 3  4  5  6  7  8  9  10  11  12  13  24  28  29  30  31  32 0
 6-311+G(2d,p)
 ****
 33  34 0
 6-311+G(2d,p)
 ****
 1  2  14  15  16  17  18  19  20  21  22  23  25  26  27 0
 3-21G
 ****
 35  36  37  38  39  40  41  42  43  44  45 0
 3-21G
 ****


