%nproc=1
%NoSave
%Mem=1900MB
#P OB98/GEN NMR

erre ene a

0 1
  C      140.362     -41.115    -854.601
  O      140.903     -42.429    -854.626
  P      140.474     -43.435    -853.445
  C      138.844     -45.110    -854.590
  O      140.175     -44.846    -854.151
  C      138.820     -46.300    -855.539
  O      139.373     -45.923    -856.814
  C      139.631     -47.499    -855.076
  O      138.940     -48.285    -854.116
  C      139.805     -48.265    -856.377
  O      138.630     -49.043    -856.641
  C      139.942     -47.122    -857.418
  N      143.182     -46.740    -861.279
  C      141.831     -47.035    -861.289
  N      141.252     -47.233    -862.487
  N      141.110     -47.134    -860.194
  C      141.805     -46.872    -859.067
  C      143.153     -46.568    -858.939
  C      143.952     -46.525    -860.153
  O      145.156     -46.313    -860.204
  N      143.494     -46.363    -857.626
  C      142.352     -46.502    -856.968
  N      141.313     -46.833    -857.796
  O      139.013     -42.914    -853.048
  O      141.395     -43.460    -852.278
  H      138.464     -49.596    -855.857
  H      138.808     -43.146    -852.118
  H      143.684     -46.656    -862.156
  H      142.247     -46.356    -855.900
  H      139.371     -47.329    -858.319
  H      140.665     -48.956    -856.362
  H      141.726     -47.037    -863.369
  H      140.620     -47.186    -854.685
  H      140.266     -47.405    -862.518
  H      137.767     -46.588    -855.693
  H      138.454     -44.226    -855.115
  H      138.229     -45.297    -853.703
  P      139.732     -49.524    -853.467
  C      139.750     -48.916    -850.942
  O      139.156     -49.668    -851.979
  O      141.207     -48.934    -853.271
  O      139.737     -50.762    -854.309
  H      141.870     -49.659    -853.282
  H      140.067     -47.928    -851.287
  H      140.621     -49.448    -850.553
  H      139.027     -48.791    -850.142
  H      140.731     -40.562    -855.439
  H      140.654     -40.626    -853.695
  H      139.294     -41.168    -854.650

 3  4  5  6  7  8  9  10  11  12  23  26  30  31  33  0
 6-311+G(2d,p)
 ****
 35  36  37  38 0
 6-311+G(2d,p)
 ****
 1  2  13  14  15  16  17  18  19  20  21  22  24  25  27  28  29 0
 3-21G
 ****
 32  34  39  40  41  42  43  44  45  46  47  48  49 0
 3-21G
 ****


