%nproc=1
%NoSave
%Mem=1900MB
#P OB98/GEN NMR

erre ene a

0 1
  C     -551.739    -378.441    -165.012
  O     -550.882    -378.969    -166.009
  H     -551.654    -377.352    -165.018
  H     -551.437    -378.807    -164.026
  H     -552.778    -378.714    -165.214
  P     -550.924    -380.539    -166.314
  C     -552.998    -379.910    -167.728
  O     -552.398    -380.868    -166.858
  C     -554.198    -380.527    -168.431
  O     -553.766    -381.397    -169.493
  C     -555.072    -381.382    -167.523
  O     -555.892    -380.587    -166.681
  C     -555.839    -382.206    -168.557
  O     -556.932    -381.457    -169.093
  C     -554.748    -382.441    -169.631
  N     -554.134    -383.766    -169.526
  C     -554.753    -384.796    -170.235
  O     -555.788    -384.642    -170.885
  N     -554.162    -386.029    -170.132
  C     -553.102    -386.345    -169.335
  O     -552.667    -387.491    -169.217
  C     -552.501    -385.225    -168.587
  C     -553.035    -384.005    -168.729
  O     -550.449    -381.431    -165.218
  O     -550.022    -380.694    -167.627
  H     -557.481    -381.174    -168.323
  H     -549.158    -381.080    -167.379
  H     -554.609    -386.785    -170.628
  H     -551.647    -385.434    -167.966
  H     -552.618    -383.172    -168.187
  H     -555.177    -382.346    -170.634
  H     -556.246    -383.114    -168.133
  H     -554.448    -382.059    -166.927
  H     -554.791    -379.714    -168.875
  H     -552.255    -379.590    -168.468
  H     -553.297    -379.034    -167.134
  P     -556.558    -381.222    -165.378
  C     -554.492    -381.011    -163.860
  O     -555.391    -381.906    -164.509
  O     -557.744    -382.090    -165.633
  O     -556.960    -379.950    -164.500
  H     -557.930    -379.956    -164.360
  H     -553.762    -381.572    -163.315
  H     -555.037    -380.384    -163.186
  H     -554.001    -380.405    -164.593

 6  7  8  9  10  11  12  13  14  15  16  26  31  32  33  34  35 0
 6-311+G(2d,p)
 ****
 36  37 0
 6-311+G(2d,p)
 ****
 1  2  3  4  5  17  18  19  20  21  22  23  24  25 0
 3-21G
 ****
 27  28  29  30  38  39  40  41  42  43  44  45 0
 3-21G
 ****


