%nproc=1
%NoSave
%Mem=1900MB
#P OB98/GEN NMR

erre ene a

0 1
  C        8.301      57.044      80.647
  O        7.098      56.304      80.711
  H        8.675      57.018      79.622
  H        9.051      56.601      81.308
  H        8.121      58.084      80.933
  P        6.371      56.235      82.138
  C        4.234      57.507      81.380
  O        4.795      56.287      81.847
  C        3.793      57.348      79.929
  O        4.955      57.261      79.072
  C        2.997      56.078      79.663
  O        1.647      56.189      80.076
  C        3.161      55.939      78.158
  O        2.215      56.750      77.451
  C        4.585      56.458      77.928
  N        7.039      53.629      74.460
  C        6.216      54.693      74.338
  N        5.611      55.400      75.314
  C        5.954      54.926      76.524
  C        6.783      53.853      76.804
  C        7.344      53.188      75.702
  N        8.161      52.090      75.824
  N        6.860      53.643      78.167
  C        6.100      54.577      78.700
  N        5.535      55.377      77.747
  O        6.688      57.669      82.774
  O        6.819      55.122      83.024
  H        1.331      56.469      77.757
  H        7.427      57.588      83.406
  H        6.008      55.012      73.320
  H        5.922      54.709      79.760
  H        4.653      57.102      77.043
  H        3.013      54.906      77.845
  H        3.479      55.222      80.150
  H        3.219      58.237      79.637
  H        4.988      58.300      81.443
  H        3.384      57.773      82.016
  H        8.473      51.621      74.990
  H        8.302      51.684      76.741
  P        0.896      54.850      80.536
  C        1.264      55.273      83.083
  O        0.339      55.103      82.017
  O        2.083      53.799      80.749
  O       -0.123      54.348      79.570
  H        1.788      52.906      80.485
  H        0.730      55.431      83.997
  H        1.887      56.120      82.883
  H        1.871      54.396      83.172

 6  7  8  9  10  11  12  13  14  15  25  28  32  33  34  35 0
 6-311+G(2d,p)
 ****
 36  37  40 0
 6-311+G(2d,p)
 ****
 1  2  3  4  5  16  17  18  19  20  21  22  23  24 0
 3-21G
 ****
 26  27  29  30  31  38  39 41  42  43  44  45  46  47  48 0
 3-21G
 ****


