%nproc=1
%NoSave
%Mem=1900MB
#P OB98/GEN NMR

erre ene a

0 1
  C     -110.160    -156.357     346.460
  O     -109.465    -156.991     345.404
  H     -111.190    -156.722     346.471
  H     -110.170    -155.276     346.301
  H     -109.691    -156.592     347.421
  P     -107.882    -156.731     345.323
  C     -106.165    -157.072     347.279
  O     -107.240    -157.587     346.515
  C     -105.315    -158.210     347.851
  O     -106.148    -159.021     348.718
  C     -104.718    -159.130     346.784
  O     -103.427    -159.554     347.223
  C     -105.664    -160.318     346.776
  O     -105.045    -161.494     346.262
  C     -106.069    -160.386     348.258
  N     -107.332    -161.096     348.457
  C     -107.514    -161.722     349.693
  O     -106.628    -161.672     350.550
  N     -108.670    -162.422     349.922
  C     -109.543    -162.545     348.973
  N     -110.658    -163.275     349.249
  C     -109.375    -161.941     347.636
  C     -108.263    -161.231     347.453
  O     -107.772    -155.219     345.839
  O     -107.286    -156.965     343.975
  H     -104.656    -161.284     345.385
  H     -108.316    -155.039     346.624
  H     -110.127    -162.082     346.872
  H     -108.061    -160.744     346.504
  H     -105.294    -160.891     348.846
  H     -106.539    -160.100     346.152
  H     -104.637    -158.645     345.806
  H     -104.530    -157.775     348.481
  H     -110.723    -163.692     350.171
  H     -106.541    -156.455     348.100
  H     -111.376    -163.484     348.572
  H     -105.559    -156.436     346.626
  P     -102.157    -158.617     346.967
  C     -102.217    -156.137     347.708
  O     -102.085    -157.497     348.111
  O     -101.993    -158.114     345.575
  O     -100.926    -159.577     347.356
  H     -100.215    -159.429     346.703
  H     -102.150    -155.502     348.567
  H     -103.165    -155.996     347.233
  H     -101.434    -155.891     347.021

 6  7  8  9  10  11  12  13  14  15  16  26  30  31  32  33  35 0
 6-311+G(2d,p)
 ****
 37  38 0
 6-311+G(2d,p)
 ****
 1  2  3  4  5  17  18  19  20  21  22  23  24  25 0
 3-21G
 ****
 27  28  29  34  36  39  40  41  42  43  44  45  46 0
 3-21G
 ****


