%nproc=1
%NoSave
%Mem=1900MB
#P OB98/GEN NMR

erre ene a

0 1
  C      850.887     889.932    2089.154
  O      849.817     888.987    2089.075
  P      849.717     887.788    2088.009
  C      849.855     886.013    2089.965
  O      850.312     886.475    2088.704
  C      850.211     884.546    2090.193
  O      849.524     883.736    2089.161
  C      851.729     884.258    2090.036
  O      852.221     883.369    2091.019
  C      851.850     883.833    2088.588
  O      853.041     883.084    2088.304
  C      850.530     883.096    2088.370
  N      851.142     881.028    2083.703
  C      851.885     880.847    2084.853
  N      852.986     880.046    2084.759
  N      851.651     881.437    2085.984
  C      850.612     882.292    2085.924
  C      849.752     882.559    2084.856
  C      850.032     881.869    2083.632
  O      849.394     881.967    2082.592
  N      848.791     883.498    2085.191
  C      849.050     883.770    2086.435
  N      850.110     883.094    2086.965
  O      850.148     888.092    2086.609
  O      848.118     887.490    2087.990
  H      852.906     882.714    2087.396
  H      847.937     887.176    2087.076
  H      851.379     880.523    2082.852
  H      848.452     884.494    2087.034
  H      850.574     882.036    2088.667
  H      851.885     884.732    2087.955
  H      853.292     879.630    2083.867
  H      852.300     885.170    2090.204
  H      853.659     880.112    2085.524
  H      849.821     884.228    2091.186
  H      848.794     886.170    2089.969
  H      850.272     886.655    2090.757
  P      853.107     883.700    2092.348
  C      851.230     882.934    2093.940
  O      852.070     884.028    2093.524
  O      853.738     885.158    2092.044
  O      854.154     882.691    2092.660
  H      854.694     885.057    2092.078
  H      850.400     883.352    2094.555
  H      851.799     882.226    2094.546
  H      850.776     882.464    2093.079
  H      850.698     890.618    2089.953
  H      850.957     890.469    2088.231
  H      851.806     889.416    2089.337

 3  4  5  6  7  8  9  10  11  12  23  26  30  31 0
 6-311+G(2d,p)
 ****
 33  35  36  37  38 0
 6-311+G(2d,p)
 ****
 1  2  13  14  15  16  17  18  19  20  21  22  24  25 0
 3-21G
 ****
 27  28  29  32  34  39  40  41  42  43  44  45  46  47  48  49 0
 3-21G
 ****


