%nproc=1
%NoSave
%Mem=1900MB
#P OB98/GEN NMR

erre ene a

0 1
  C       21.482    -350.398     101.661
  O       20.981    -351.692     101.388
  P       21.926    -352.973     101.571
  C       21.204    -353.672     103.971
  O       22.207    -353.127     103.142
  C       21.815    -354.387     105.182
  O       20.731    -354.933     105.970
  C       22.719    -355.567     104.841
  O       23.529    -355.865     105.983
  C       21.713    -356.677     104.630
  O       22.303    -357.968     104.745
  C       20.626    -356.349     105.684
  N       19.276    -356.674     105.189
  C       18.676    -357.818     105.705
  O       19.188    -358.504     106.589
  N       17.504    -358.198     105.107
  C       16.924    -357.577     104.041
  O       16.065    -358.091     103.334
  C       17.472    -356.254     103.705
  C       18.622    -355.879     104.268
  O       23.324    -352.469     100.979
  O       21.449    -354.209     100.888
  H       22.621    -358.056     105.672
  H       23.421    -352.753     100.053
  H       17.146    -359.105     105.381
  H       16.950    -355.659     102.966
  H       19.076    -354.930     104.000
  H       20.787    -356.908     106.615
  H       21.294    -356.593     103.621
  H       23.346    -355.412     103.962
  H       22.351    -353.658     105.805
  H       20.587    -354.361     103.389
  H       20.534    -352.878     104.325
  P       24.913    -356.636     105.736
  C       26.060    -354.338     105.779
  O       25.918    -355.566     105.092
  O       24.815    -357.941     105.018
  O       25.492    -356.816     107.221
  H       26.166    -357.519     107.228
  H       27.062    -353.947     105.592
  H       25.920    -354.462     106.857
  H       25.322    -353.626     105.399
  H       20.714    -349.674     101.484
  H       22.316    -350.197     101.022
  H       21.794    -350.345     102.683

 3  4  5  6  7  8  9  10  11  12  13  23  28  29  30  31  32 0
 6-311+G(2d,p)
 ****
 33  34 0
 6-311+G(2d,p)
 ****
 1  2  14  15  16  17  18  19  20  21  22  24  25  26  27 0
 3-21G
 ****
 35  36  37  38  39  40  41  42  43  44  45 0
 3-21G
 ****


