%nproc=1
%NoSave
%Mem=1900MB
#P OB98/GEN NMR

erre ene a

0 1
  C     -441.508    -152.721     -56.795
  O     -440.441    -151.931     -57.277
  H     -441.218    -153.773     -56.851
  H     -442.396    -152.571     -57.413
  H     -441.735    -152.477     -55.754
  P     -440.524    -150.339     -57.117
  C     -439.780    -150.624     -54.664
  O     -440.723    -150.041     -55.554
  C     -439.644    -149.760     -53.413
  O     -438.900    -150.468     -52.398
  C     -438.893    -148.452     -53.640
  O     -439.712    -147.508     -54.301
  C     -438.521    -148.090     -52.209
  O     -439.633    -147.487     -51.530
  C     -438.196    -149.481     -51.613
  N     -436.764    -149.769     -51.572
  C     -436.079    -149.342     -50.437
  O     -436.617    -148.720     -49.524
  N     -434.743    -149.642     -50.400
  C     -434.026    -150.235     -51.398
  O     -432.816    -150.433     -51.336
  C     -434.794    -150.632     -52.587
  C     -436.107    -150.386     -52.619
  O     -441.492    -149.644     -58.016
  O     -439.021    -149.856     -57.386
  H     -440.417    -148.033     -51.739
  H     -438.942    -149.518     -58.297
  H     -434.228    -149.332     -49.593
  H     -434.260    -151.099     -53.401
  H     -436.691    -150.666     -53.489
  H     -438.589    -149.554     -50.591
  H     -437.697    -147.377     -52.156
  H     -437.973    -148.636     -54.205
  H     -440.650    -149.567     -53.020
  H     -438.810    -150.687     -55.171
  H     -440.114    -151.632     -54.405
  P     -439.204    -146.009     -54.538
  C     -438.341    -146.699     -56.848
  O     -438.016    -146.066     -55.617
  O     -438.882    -145.242     -53.299
  O     -440.398    -145.320     -55.348
  H     -440.889    -144.711     -54.762
  H     -437.487    -146.684     -57.493
  H     -439.150    -146.177     -57.315
  H     -438.631    -147.712     -56.662

 6  7  8  9  10  11  12  13  14  15  16  26  31  32  33  34  35 0
 6-311+G(2d,p)
 ****
 36  37 0
 6-311+G(2d,p)
 ****
 1  2  3  4  5  17  18  19  20  21  22  23  24  25 0
 3-21G
 ****
 27  28  29  30  38  39  40  41  42  43  44  45 0
 3-21G
 ****


