%nproc=1
%NoSave
%Mem=1900MB
#P OB98/GEN NMR

erre ene a

0 1
  C       76.733      82.198    -104.222
  O       77.750      82.933    -104.875
  P       78.257      84.330    -104.284
  C       79.217      85.179    -102.067
  O       78.513      84.125    -102.711
  C       78.429      85.726    -100.877
  O       77.196      86.329    -101.361
  C       78.041      84.677     -99.826
  O       78.070      85.335     -98.555
  C       76.604      84.347    -100.196
  O       75.875      83.766     -99.121
  C       76.112      85.724    -100.626
  N       71.238      84.201    -100.876
  C       72.171      84.073     -99.910
  N       73.456      84.482     -99.929
  C       73.746      85.083    -101.094
  C       72.909      85.260    -102.183
  C       71.586      84.803    -102.039
  N       70.613      84.957    -103.001
  N       73.591      85.870    -103.220
  C       74.811      86.056    -102.762
  N       74.933      85.655    -101.461
  O       77.414      85.512    -104.628
  O       79.737      84.486    -104.873
  H       74.960      83.606     -99.420
  H       79.742      85.159    -105.582
  H       71.842      83.581     -98.998
  H       75.636      86.470    -103.325
  H       75.882      86.368     -99.769
  H       76.594      83.640    -101.033
  H       78.686      83.794     -99.819
  H       79.019      86.529    -100.416
  H       79.370      85.979    -102.796
  H       69.669      84.713    -102.742
  H       70.767      85.626    -103.753
  H       80.198      84.821    -101.735
  P       78.353      84.489     -97.223
  C       80.402      83.209     -96.380
  O       79.653      83.602     -97.515
  O       77.179      83.748     -96.675
  O       78.892      85.591     -96.188
  H       78.829      85.242     -95.279
  H       81.046      84.036     -96.066
  H       81.026      82.352     -96.646
  H       79.745      82.927     -95.551
  H       76.536      81.299    -104.768
  H       75.842      82.788    -104.173
  H       77.052      81.951    -103.231

 3  4  5  6  7  8  9  10  11  12  22  25  29  30  31  32 0
 6-311+G(2d,p)
 ****
 33  36  37 0
 6-311+G(2d,p)
 ****
 1  2  13  14  15  16  17  18  19  20  21  23  24  26 0
 3-21G
 ****
 27  28  34  35  38  39  40  41  42  43  44  45  46  47  48 0
 3-21G
 ****


