%nproc=1
%NoSave
%Mem=1900MB
#P OB98/GEN NMR

erre ene a

0 1
  C      421.994     -70.594    -146.895
  O      421.046     -70.003    -147.764
  H      422.860     -70.908    -147.487
  H      421.574     -71.469    -146.392
  H      422.326     -69.861    -146.152
  P      419.582     -69.695    -147.181
  C      418.751     -71.387    -148.953
  O      418.677     -70.960    -147.593
  C      418.994     -72.897    -149.043
  O      420.060     -73.278    -148.154
  C      417.796     -73.734    -148.627
  O      416.709     -73.674    -149.525
  C      418.439     -75.084    -148.314
  O      418.591     -75.918    -149.457
  C      419.830     -74.659    -147.785
  N      419.956     -74.862    -146.346
  C      421.083     -75.569    -145.934
  O      421.927     -76.019    -146.712
  N      421.201     -75.782    -144.587
  C      420.293     -75.409    -143.642
  O      420.427     -75.664    -142.454
  C      419.100     -74.687    -144.139
  C      418.995     -74.454    -145.450
  O      418.990     -68.371    -147.576
  O      419.756     -69.869    -145.599
  H      419.101     -76.703    -149.173
  H      419.006     -69.453    -145.110
  H      422.015     -76.283    -144.270
  H      418.357     -74.378    -143.416
  H      418.125     -73.928    -145.840
  H      420.617     -75.246    -148.279
  H      417.849     -75.645    -147.584
  H      417.427     -73.347    -147.676
  H      419.307     -73.133    -150.070
  H      419.588     -70.851    -149.423
  H      417.823     -71.117    -149.471
  P      415.278     -73.082    -149.126
  C      414.168     -75.046    -150.430
  O      414.196     -74.267    -149.228
  O      414.927     -71.738    -149.682
  O      415.435     -72.911    -147.526
  H      414.929     -72.123    -147.260
  H      413.404     -75.791    -150.354
  H      415.117     -75.521    -150.569
  H      413.963     -74.408    -151.264

 6  7  8  9  10  11  12  13  14  15  16  26  31  32  33  34  35 0
 6-311+G(2d,p)
 ****
 36  37 0
 6-311+G(2d,p)
 ****
 1  2  3  4  5  17  18  19  20  21  22  23  24  25 0
 3-21G
 ****
 27  28  29  30  38  39  40  41  42  43  44  45 0
 3-21G
 ****


