%nproc=1
%NoSave
%Mem=1900MB
#P OB98/GEN NMR

erre ene a

0 1
  C     -131.170     165.140     142.953
  O     -130.988     164.468     144.201
  P     -130.257     165.240     145.405
  C     -132.452     165.270     146.743
  O     -131.064     164.963     146.766
  C     -133.267     164.363     147.675
  O     -133.248     162.985     147.205
  C     -132.784     164.351     149.132
  O     -133.948     164.230     149.962
  C     -131.951     163.084     149.186
  O     -131.733     162.631     150.517
  C     -132.791     162.162     148.297
  N     -132.045     161.006     147.825
  C     -131.966     159.904     148.677
  O     -132.426     159.974     149.820
  N     -131.340     158.765     148.228
  C     -130.721     158.785     147.088
  N     -130.129     157.634     146.664
  C     -130.627     159.992     146.241
  C     -131.328     161.045     146.654
  O     -129.942     166.678     145.143
  O     -128.914     164.386     145.610
  H     -131.240     161.784     150.489
  H     -128.191     164.994     145.871
  H     -130.032     159.984     145.341
  H     -131.329     161.973     146.103
  H     -133.684     161.809     148.835
  H     -130.969     163.268     148.730
  H     -132.232     165.255     149.414
  H     -134.315     164.698     147.642
  H     -130.181     156.821     147.268
  H     -132.827     165.162     145.718
  H     -129.672     157.554     145.765
  H     -132.590     166.328     147.006
  P     -134.280     165.405     151.005
  C     -135.745     167.136     149.733
  O     -135.705     166.026     150.607
  O     -133.269     166.561     150.530
  O     -134.055     165.089     152.449
  H     -133.089     167.153     151.288
  H     -136.769     167.244     149.355
  H     -135.078     166.998     148.879
  H     -135.473     168.049     150.274
  H     -131.669     164.489     142.267
  H     -130.216     165.415     142.554
  H     -131.761     166.019     143.104

 3  4  5  6  7  8  9  10  11  12  13  23  27  28  29  30  32 0
 6-311+G(2d,p)
 ****
 34  35 0
 6-311+G(2d,p)
 ****
 1  2  14  15  16  17  18  19  20  21  22  24  25  26 0
 3-21G
 ****
 31  33  36  37  38  39  40  41  42  43  44  45  46 0
 3-21G
 ****


