%nproc=1
%NoSave
%Mem=1900MB
#P OB98/GEN NMR

erre ene a

0 1
  C      157.589    -221.975    -346.642
  O      156.493    -221.227    -346.148
  H      157.286    -222.472    -347.568
  H      157.880    -222.734    -345.911
  H      158.436    -221.317    -346.853
  P      156.798    -220.237    -344.924
  C      155.510    -221.741    -343.204
  O      156.729    -221.111    -343.574
  C      155.490    -221.999    -341.699
  O      154.159    -222.327    -341.253
  C      156.321    -223.198    -341.260
  O      157.710    -222.948    -341.322
  C      155.805    -223.391    -339.842
  O      156.478    -222.537    -338.909
  C      154.314    -222.991    -339.974
  N      153.433    -224.138    -339.837
  C      153.305    -224.642    -338.536
  O      153.904    -224.101    -337.604
  N      152.538    -225.760    -338.336
  C      151.969    -226.343    -339.349
  N      151.247    -227.468    -339.087
  C      152.081    -225.845    -340.735
  C      152.819    -224.749    -340.908
  O      155.467    -219.353    -344.856
  O      158.054    -219.444    -345.061
  H      157.355    -222.948    -338.743
  H      154.650    -219.875    -344.865
  H      151.579    -226.358    -341.542
  H      152.955    -224.315    -341.890
  H      154.043    -222.255    -339.204
  H      155.954    -224.417    -339.494
  H      156.045    -224.083    -341.848
  H      155.815    -221.081    -341.190
  H      151.247    -227.804    -338.129
  H      155.380    -222.680    -343.751
  H      150.830    -228.043    -339.801
  H      154.691    -221.074    -343.489
  P      158.756    -224.134    -341.568
  C      159.565    -224.382    -339.132
  O      158.831    -224.977    -340.198
  O      160.084    -223.717    -342.103
  O      157.952    -225.136    -342.527
  H      157.120    -225.484    -342.156
  H      159.545    -225.029    -338.280
  H      159.123    -223.442    -338.876
  H      160.578    -224.228    -339.439

 6  7  8  9  10  11  12  13  14  15  16  26  30  31  32  33  35 0
 6-311+G(2d,p)
 ****
 37  38 0
 6-311+G(2d,p)
 ****
 1  2  3  4  5  17  18  19  20  21  22  23  24  25 0
 3-21G
 ****
 27  28  29  34  36  39  40  41  42  43  44  45  46 0
 3-21G
 ****


