%nproc=1
%NoSave
%Mem=1900MB
#P OB98/GEN NMR

erre ene a

0 1
  C       -3.119      70.558      22.901
  O       -2.386      71.158      21.853
  H       -4.141      70.383      22.556
  H       -3.153      71.215      23.775
  H       -2.674      69.597      23.174
  P       -0.879      71.626      22.148
  C        1.304      70.303      22.597
  O       -0.114      70.266      22.540
  C        1.825      69.199      23.514
  O        1.535      69.492      24.896
  C        1.210      67.824      23.272
  O        1.690      67.188      22.100
  C        1.650      67.112      24.542
  O        3.042      66.766      24.441
  C        1.431      68.223      25.599
  N        0.141      68.118      26.277
  C        0.164      67.675      27.606
  O        1.229      67.393      28.152
  N       -1.027      67.524      28.275
  C       -2.143      67.774      27.666
  N       -3.297      67.563      28.359
  C       -2.214      68.259      26.274
  C       -1.050      68.402      25.644
  O       -0.714      72.754      23.115
  O       -0.267      71.933      20.702
  H        3.415      66.818      25.340
  H        0.664      72.238      20.831
  H       -3.172      68.445      25.811
  H       -1.021      68.738      24.614
  H        2.228      68.205      26.351
  H        1.097      66.188      24.733
  H        0.116      67.881      23.265
  H        2.917      69.174      23.413
  H       -3.211      67.190      29.295
  H        1.605      71.290      22.962
  H       -4.187      67.465      27.883
  H        1.725      70.150      21.599
  P        0.779      66.041      21.440
  C       -1.509      66.128      20.197
  O       -0.667      66.691      21.188
  O        0.536      65.035      22.657
  O        1.361      65.363      20.240
  H        1.193      64.313      22.654
  H       -2.428      66.675      20.157
  H       -1.713      65.106      20.440
  H       -1.022      66.178      19.245

 6  7  8  9  10  11  12  13  14  15  16  26  30  31  32  33  35 0
 6-311+G(2d,p)
 ****
 37  38 0
 6-311+G(2d,p)
 ****
 1  2  3  4  5  17  18  19  20  21  22  23  24  25 0
 3-21G
 ****
 27  28  29  34  36  39  40  41  42  43  44  45  46 0
 3-21G
 ****


