%nproc=1
%NoSave
%Mem=1900MB
#P OB98/GEN NMR

erre ene a

0 1
  C     -209.151     611.077    -600.592
  O     -210.551     611.292    -600.520
  H     -208.836     610.549    -599.693
  H     -208.620     612.026    -600.648
  H     -208.908     610.460    -601.466
  P     -211.264     612.095    -601.708
  C     -211.606     614.186    -600.227
  O     -212.223     613.168    -601.006
  C     -212.303     614.311    -598.866
  O     -213.690     614.646    -599.036
  C     -212.268     613.018    -598.031
  O     -211.023     612.888    -597.364
  C     -213.420     613.290    -597.072
  O     -213.001     614.225    -596.052
  C     -214.447     613.974    -598.001
  N     -219.038     611.810    -597.699
  C     -218.363     612.589    -596.786
  N     -218.986     612.805    -595.607
  N     -217.177     613.105    -596.997
  C     -216.653     612.749    -598.181
  C     -217.210     611.972    -599.172
  C     -218.543     611.458    -598.953
  O     -219.181     610.789    -599.756
  N     -216.335     611.757    -600.214
  C     -215.262     612.452    -599.873
  N     -215.391     613.073    -598.647
  O     -211.944     611.258    -602.749
  O     -210.094     613.001    -602.330
  H     -213.722     614.272    -595.392
  H     -209.648     612.544    -603.071
  H     -219.944     611.429    -597.482
  H     -214.358     612.554    -600.480
  H     -215.042     614.728    -597.472
  H     -213.766     612.393    -596.569
  H     -219.822     612.307    -595.335
  H     -212.515     612.147    -598.637
  H     -218.488     613.320    -594.896
  H     -211.818     615.140    -598.318
  H     -211.694     615.128    -600.781
  H     -210.544     613.956    -600.075
  P     -210.508     611.464    -596.815
  C     -211.142     611.880    -594.334
  O     -210.099     611.731    -595.285
  O     -209.461     610.812    -597.648
  O     -211.859     610.611    -596.651
  H     -212.131     610.156    -597.485
  H     -210.720     612.051    -593.366
  H     -211.735     610.990    -594.312
  H     -211.757     612.712    -594.607

 6  7  8  9  10  11  12  13  14  15  26  29  33  34 0
 6-311+G(2d,p)
 ****
 36  38  39  40  41 0
 6-311+G(2d,p)
 ****
 1  2  3  4  5  16  17  18  19  20  21  22  23  24  25 0
 3-21G
 ****
 27  28  30  31  32  35  37  42  43  44  45  46  47 0
 3-21G
 ****
 48  49 0
 3-21G
 ****


