%nproc=1
%NoSave
%Mem=1900MB
#P OB98/GEN NMR

erre ene a

0 1
  C      840.039     796.117    -293.346
  O      840.962     797.100    -293.781
  H      840.492     795.547    -292.535
  H      839.798     795.441    -294.177
  H      839.127     796.592    -292.981
  P      840.425     798.175    -294.851
  C      839.922     799.993    -293.010
  O      839.429     799.142    -294.030
  C      838.808     800.888    -292.458
  O      837.669     800.050    -292.129
  C      839.201     801.677    -291.221
  O      838.558     802.958    -291.272
  C      838.598     800.859    -290.086
  O      838.398     801.632    -288.924
  C      837.324     800.316    -290.735
  N      836.811     799.115    -290.082
  C      835.935     799.317    -289.023
  O      835.634     800.447    -288.649
  N      835.454     798.214    -288.344
  C      835.844     797.032    -288.663
  N      835.357     795.999    -287.954
  C      836.820     796.782    -289.764
  C      837.233     797.849    -290.434
  O      839.444     797.289    -295.750
  O      841.494     798.870    -295.613
  H      838.075     801.044    -288.196
  H      838.868     796.700    -295.229
  H      837.123     795.770    -290.005
  H      837.928     797.753    -291.255
  H      836.532     801.086    -290.749
  H      839.275     800.031    -289.818
  H      840.279     801.809    -291.127
  H      838.485     801.566    -293.273
  H      834.724     796.217    -287.181
  H      840.740     800.617    -293.392
  H      835.642     795.036    -288.077
  H      840.326     799.372    -292.215
  P      839.444     804.258    -291.549
  C      838.466     804.746    -293.894
  O      839.615     804.460    -293.128
  O      840.687     804.404    -290.742
  O      838.407     805.458    -291.184
  H      838.915     806.138    -290.702
  H      838.741     804.853    -294.923
  H      838.023     805.656    -293.547
  H      837.762     803.946    -293.794

 6  7  8  9  10  11  12  13  14  15  16  26  30  31  32  33  35 0
 6-311+G(2d,p)
 ****
 37  38 0
 6-311+G(2d,p)
 ****
 1  2  3  4  5  17  18  19  20  21  22  23  24  25 0
 3-21G
 ****
 27  28  29  34  36  39  40  41  42  43  44  45  46 0
 3-21G
 ****


