%nproc=1
%NoSave
%Mem=1900MB
#P OB98/GEN NMR

erre ene a

0 1
  C     -647.146     -11.648     -28.704
  O     -647.946     -10.594     -28.217
  P     -647.360      -9.559     -27.136
  C     -649.359      -8.177     -26.286
  O     -648.289      -8.249     -27.219
  C     -650.311      -7.045     -26.668
  O     -649.691      -5.750     -26.466
  C     -650.714      -7.046     -28.137
  O     -651.502      -8.119     -28.596
  C     -651.299      -5.648     -28.279
  O     -652.646      -5.597     -27.803
  C     -650.370      -4.825     -27.355
  N     -649.422      -4.011     -28.115
  C     -649.690      -2.653     -28.167
  O     -650.663      -2.130     -27.621
  N     -648.822      -1.897     -28.912
  C     -647.759      -2.371     -29.626
  O     -647.045      -1.643     -30.305
  C     -647.532      -3.817     -29.541
  C     -648.356      -4.567     -28.807
  O     -645.897      -9.289     -27.241
  O     -647.804     -10.198     -25.735
  H     -652.912      -4.658     -27.779
  H     -648.769     -10.300     -25.622
  H     -649.013      -0.906     -28.974
  H     -646.686      -4.222     -30.086
  H     -648.208      -5.643     -28.726
  H     -650.958      -4.154     -26.716
  H     -651.313      -5.318     -29.324
  H     -649.802      -7.070     -28.742
  H     -651.183      -7.094     -26.009
  H     -648.952      -7.976     -25.292
  H     -649.880      -9.141     -26.249
  P     -651.095      -9.031     -29.851
  C     -653.450      -8.582     -30.849
  O     -652.440      -9.532     -30.568
  O     -650.019     -10.042     -29.632
  O     -650.562      -7.927     -30.891
  H     -649.861      -8.324     -31.449
  H     -654.301      -9.105     -31.290
  H     -653.086      -7.840     -31.557
  H     -653.782      -8.098     -29.925
  H     -647.707     -12.225     -29.409
  H     -646.846     -12.274     -27.890
  H     -646.278     -11.245     -29.183

 3  4  5  6  7  8  9  10  11  12  13  23  28  29  30  31  32 0
 6-311+G(2d,p)
 ****
 33  34 0
 6-311+G(2d,p)
 ****
 1  2  14  15  16  17  18  19  20  21  22  24  25  26  27 0
 3-21G
 ****
 35  36  37  38  39  40  41  42  43  44  45 0
 3-21G
 ****


