%nproc=1
%NoSave
%Mem=1900MB
#P OB98/GEN NMR

erre ene a

0 1
  C      183.117      96.605     228.261
  O      182.451      95.660     227.415
  P      182.936      94.139     227.259
  C      184.666      94.622     225.405
  O      183.486      93.912     225.770
  C      185.068      94.342     223.953
  O      185.303      92.936     223.758
  C      184.023      94.727     222.915
  O      183.993      96.129     222.713
  C      184.492      93.914     221.714
  O      185.552      94.592     221.014
  C      185.012      92.626     222.379
  N      184.070      91.519     222.270
  C      184.507      90.400     221.553
  O      185.613      90.395     221.006
  N      183.670      89.313     221.458
  C      182.474      89.374     221.961
  N      181.694      88.269     221.838
  C      181.943      90.571     222.640
  C      182.789      91.592     222.757
  O      181.924      93.133     227.697
  O      184.256      94.030     228.164
  H      186.364      94.454     221.538
  H      184.327      93.121     228.515
  H      180.935      90.590     223.020
  H      182.483      92.509     223.251
  H      185.965      92.319     221.928
  H      183.696      93.736     220.986
  H      183.036      94.366     223.232
  H      186.013      94.870     223.761
  H      182.088      87.464     221.370
  H      185.476      94.307     226.073
  H      180.749      88.212     222.196
  H      184.488      95.693     225.549
  P      183.269      97.069     223.782
  C      180.909      97.127     222.772
  O      182.096      97.857     223.022
  O      184.170      97.924     224.613
  O      182.456      96.038     224.704
  H      182.403      96.399     225.612
  H      180.085      97.832     222.636
  H      180.670      96.459     223.604
  H      181.033      96.543     221.856
  H      182.617      97.549     228.204
  H      184.131      96.718     227.940
  H      183.100      96.253     229.271

 3  4  5  6  7  8  9  10  11  12  13  23  27  28  29  30  32 0
 6-311+G(2d,p)
 ****
 34  35 0
 6-311+G(2d,p)
 ****
 1  2  14  15  16  17  18  19  20  21  22  24  25  26 0
 3-21G
 ****
 31  33  36  37  38  39  40  41  42  43  44  45  46 0
 3-21G
 ****


