%nproc=1
%NoSave
%Mem=1900MB
#P OB98/GEN NMR

erre ene a

0 1
  C      169.370      28.444     -28.423
  O      168.508      27.359     -28.703
  H      168.832      29.171     -27.809
  H      169.668      28.926     -29.358
  H      170.255      28.107     -27.877
  P      169.184      26.033     -29.305
  C      171.138      24.479     -28.592
  O      170.441      25.695     -28.364
  C      172.640      24.689     -28.420
  O      173.149      25.553     -29.460
  C      173.036      25.333     -27.095
  O      173.126      24.370     -26.053
  C      174.408      25.882     -27.449
  O      175.375      24.809     -27.453
  C      174.188      26.392     -28.880
  N      175.608      31.216     -28.225
  C      176.296      30.047     -27.963
  N      177.535      30.184     -27.444
  N      175.813      28.851     -28.182
  C      174.553      28.868     -28.680
  C      173.768      29.960     -28.975
  C      174.320      31.275     -28.743
  O      173.756      32.343     -28.968
  N      172.544      29.584     -29.463
  C      172.581      28.267     -29.443
  N      173.776      27.782     -28.972
  O      169.855      26.565     -30.661
  O      168.246      24.905     -29.570
  H      176.254      25.216     -27.561
  H      169.292      26.303     -31.414
  H      176.022      32.110     -28.027
  H      171.776      27.620     -29.762
  H      175.083      26.282     -29.502
  H      174.762      26.625     -26.731
  H      177.959      31.072     -27.230
  H      172.366      26.160     -26.829
  H      178.059      29.338     -27.247
  H      173.130      23.713     -28.538
  H      170.932      24.136     -29.612
  H      170.783      23.726     -27.881
  P      172.877      24.859     -24.545
  C      170.712      25.217     -23.163
  O      171.331      25.285     -24.440
  O      173.654      26.258     -24.498
  O      173.364      23.930     -23.486
  H      174.438      26.182     -23.917
  H      169.691      25.527     -23.244
  H      171.228      25.861     -22.482
  H      170.751      24.211     -22.801

 6  7  8  9  10  11  12  13  14  15  26  29  33  34 0
 6-311+G(2d,p)
 ****
 36  38  39  40  41 0
 6-311+G(2d,p)
 ****
 1  2  3  4  5  16  17  18  19  20  21  22  23  24  25 0
 3-21G
 ****
 27  28  30  31  32  35  37  42  43  44  45  46  47 0
 3-21G
 ****
 48  49 0
 3-21G
 ****


