%nproc=1
%NoSave
%Mem=1900MB
#P OB98/GEN NMR

erre ene a

0 1
  C     -132.964     -68.998    1070.550
  O     -133.692     -69.783    1069.582
  P     -132.984     -70.485    1068.326
  C     -133.359     -72.753    1067.138
  O     -133.979     -71.587    1067.709
  C     -134.360     -73.889    1066.937
  O     -134.928     -74.326    1068.204
  C     -135.579     -73.518    1066.084
  O     -135.230     -73.482    1064.701
  C     -136.556     -74.626    1066.468
  O     -136.292     -75.833    1065.714
  C     -136.235     -74.826    1067.958
  N     -137.227     -74.193    1068.829
  C     -137.454     -74.787    1070.072
  O     -136.857     -75.845    1070.359
  N     -138.359     -74.211    1070.936
  C     -139.026     -73.162    1070.555
  N     -139.898     -72.609    1071.455
  C     -138.892     -72.551    1069.211
  C     -137.992     -73.106    1068.424
  O     -131.608     -70.993    1068.606
  O     -132.957     -69.346    1067.186
  H     -135.339     -75.813    1065.469
  H     -132.182     -69.496    1066.620
  H     -139.495     -71.693    1068.936
  H     -137.819     -72.716    1067.423
  H     -136.196     -75.901    1068.209
  H     -137.598     -74.349    1066.273
  H     -135.985     -72.541    1066.404
  H     -133.836     -74.751    1066.496
  H     -139.958     -73.062    1072.369
  H     -132.566     -73.090    1067.831
  H     -140.477     -71.804    1071.262
  H     -132.905     -72.470    1066.185
  P     -135.371     -72.100    1063.889
  C     -133.816     -71.043    1062.125
  O     -134.455     -72.218    1062.579
  O     -135.161     -70.862    1064.691
  O     -136.851     -72.162    1063.270
  H     -137.208     -71.250    1063.210
  H     -132.951     -71.293    1061.524
  H     -133.501     -70.404    1062.979
  H     -134.526     -70.447    1061.518
  H     -133.641     -68.632    1071.294
  H     -132.493     -68.172    1070.058
  H     -132.218     -69.608    1071.016

 3  4  5  6  7  8  9  10  11  12  13  23  27  28  29  30  32 0
 6-311+G(2d,p)
 ****
 34  35 0
 6-311+G(2d,p)
 ****
 1  2  14  15  16  17  18  19  20  21  22  24  25  26 0
 3-21G
 ****
 31  33  36  37  38  39  40  41  42  43  44  45  46 0
 3-21G
 ****


