%nproc=1
%NoSave
%Mem=1900MB
#P OB98/GEN NMR

erre ene a

0 1
  C      153.506     235.902    -731.056
  O      153.718     235.289    -732.317
  P      153.065     235.981    -733.609
  C      152.318     233.698    -734.616
  O      151.935     234.991    -734.166
  C      151.088     232.948    -735.136
  O      150.159     232.682    -734.055
  C      150.290     233.724    -736.180
  O      150.906     233.659    -737.457
  C      148.939     233.024    -736.115
  O      148.932     231.843    -736.921
  C      148.829     232.678    -734.616
  N      147.928     233.564    -733.893
  C      146.570     233.405    -734.163
  O      146.140     232.590    -734.979
  N      145.722     234.242    -733.492
  C      146.095     235.252    -732.646
  O      145.294     236.015    -732.116
  C      147.545     235.397    -732.419
  C      148.386     234.557    -733.048
  O      154.223     235.909    -734.715
  O      152.595     237.383    -733.380
  H      149.009     232.125    -737.852
  H      154.192     236.710    -735.275
  H      144.735     234.134    -733.655
  H      147.874     236.181    -731.743
  H      149.452     234.662    -732.905
  H      148.457     231.650    -734.499
  H      148.129     233.667    -736.483
  H      150.173     234.770    -735.855
  H      151.414     231.980    -735.544
  H      152.768     233.142    -733.785
  H      153.067     233.796    -735.406
  P      151.273     235.057    -738.160
  C      151.658     233.788    -740.414
  O      150.982     234.819    -739.719
  O      152.867     235.045    -738.025
  O      150.597     236.223    -737.523
  H      153.237     234.146    -738.067
  H      151.815     232.905    -739.787
  H      152.613     234.156    -740.775
  H      151.046     233.494    -741.276
  H      153.998     235.332    -730.295
  H      152.457     235.941    -730.850
  H      153.904     236.895    -731.071

 3  4  5  6  7  8  9  10  11  12  13  23  28  29  30  31  32 0
 6-311+G(2d,p)
 ****
 33  34 0
 6-311+G(2d,p)
 ****
 1  2  14  15  16  17  18  19  20  21  22  24  25  26 0
 3-21G
 ****
 27  35  36  37  38  39  40  41  42  43  44  45 0
 3-21G
 ****


