%nproc=1
%NoSave
%Mem=1900MB
#P OB98/GEN NMR

erre ene a

0 1
  C      140.124      -9.098      31.010
  O      140.170      -9.423      32.393
  P      138.791      -9.771      33.137
  C      138.564      -7.380      34.117
  O      137.986      -8.389      33.301
  C      137.716      -6.109      34.105
  O      137.588      -5.638      32.737
  C      136.297      -6.285      34.657
  O      135.931      -5.055      35.291
  C      135.461      -6.466      33.403
  O      134.084      -6.177      33.626
  C      136.177      -5.505      32.458
  N      132.729      -5.223      28.695
  C      132.695      -4.801      29.975
  N      133.654      -4.911      30.918
  C      134.736      -5.535      30.423
  C      134.900      -6.052      29.148
  C      133.831      -5.873      28.253
  N      133.866      -6.293      26.945
  N      136.139      -6.647      29.023
  C      136.711      -6.493      30.199
  N      135.912      -5.807      31.068
  O      139.272     -10.102      34.627
  O      138.018     -10.900      32.550
  H      133.781      -6.702      34.391
  H      139.146     -11.053      34.813
  H      131.780      -4.301      30.284
  H      137.693      -6.859      30.469
  H      135.894      -4.460      32.638
  H      135.538      -7.501      33.053
  H      136.190      -7.120      35.358
  H      138.251      -5.332      34.666
  H      139.558      -7.141      33.728
  H      133.120      -6.007      26.331
  H      134.749      -6.606      26.556
  H      138.672      -7.754      35.139
  P      135.129      -5.159      36.675
  C      132.853      -4.217      35.866
  O      133.585      -5.345      36.300
  O      135.204      -3.669      37.259
  O      135.695      -6.154      37.634
  H      135.154      -3.689      38.232
  H      132.105      -4.539      35.136
  H      133.499      -3.465      35.401
  H      132.343      -3.767      36.723
  H      141.114      -8.892      30.659
  H      139.508      -8.235      30.867
  H      139.716      -9.922      30.463

 3  4  5  6  7  8  9  10  11  12  22  25  29  30  31  32 0
 6-311+G(2d,p)
 ****
 33  36  37 0
 6-311+G(2d,p)
 ****
 1  2  13  14  15  16  17  18  19  20  21  23  24  26 0
 3-21G
 ****
 27  28  34  35  38  39  40  41  42  43  44  45  46  47  48 0
 3-21G
 ****


