%nproc=1
%NoSave
%Mem=1900MB
#P OB98/GEN NMR

erre ene a

0 1
  C      121.013    -193.711    -232.863
  O      121.838    -192.557    -233.068
  P      121.473    -191.383    -234.101
  C      122.108    -190.640    -236.487
  O      122.209    -191.657    -235.501
  C      122.784    -191.051    -237.801
  O      124.235    -190.945    -237.672
  C      122.469    -192.487    -238.257
  O      122.339    -192.445    -239.682
  C      123.724    -193.233    -237.833
  O      123.894    -194.478    -238.486
  C      124.783    -192.181    -238.176
  N      126.110    -192.423    -237.620
  C      126.893    -193.420    -238.215
  O      126.461    -194.114    -239.134
  N      128.162    -193.631    -237.733
  C      128.612    -192.921    -236.747
  N      129.880    -193.174    -236.327
  C      127.817    -191.876    -236.081
  C      126.592    -191.682    -236.565
  O      121.719    -190.012    -233.562
  O      119.921    -191.581    -234.441
  H      119.504    -190.707    -234.558
  H      124.751    -194.849    -238.209
  H      128.232    -191.301    -235.265
  H      125.953    -190.909    -236.147
  H      124.854    -192.080    -239.265
  H      123.672    -193.426    -236.757
  H      121.546    -192.889    -237.830
  H      122.485    -190.332    -238.575
  H      130.399    -193.894    -236.817
  H      122.595    -189.738    -236.107
  H      130.332    -192.678    -235.573
  H      121.050    -190.412    -236.657
  P      120.993    -192.976    -240.372
  C      120.317    -195.098    -241.724
  O      121.270    -194.466    -240.893
  O      120.977    -192.146    -241.746
  O      119.725    -192.742    -239.615
  H      120.058    -192.065    -242.059
  H      120.842    -195.593    -242.546
  H      119.600    -194.391    -242.145
  H      119.781    -195.851    -241.142
  H      121.464    -194.347    -232.130
  H      120.912    -194.245    -233.785
  H      120.047    -193.403    -232.521

 3  4  5  6  7  8  9  10  11  12  13  24  27  28  29  30  32 0
 6-311+G(2d,p)
 ****
 34  35 0
 6-311+G(2d,p)
 ****
 1  2  14  15  16  17  18  19  20  21  22  23  25  26 0
 3-21G
 ****
 31  33  36  37  38  39  40  41  42  43  44  45  46 0
 3-21G
 ****


