%nproc=1
%NoSave
%Mem=1900MB
#P OB98/GEN NMR

erre ene a

0 1
  C      763.371     581.801    -405.346
  O      763.265     580.552    -405.997
  H      763.945     582.478    -405.979
  H      763.886     581.693    -404.390
  H      762.375     582.230    -405.188
  P      762.559     579.339    -405.221
  C      763.970     577.208    -405.625
  O      762.879     578.009    -406.056
  C      764.382     576.209    -406.708
  O      764.934     576.938    -407.839
  C      765.444     575.199    -406.253
  O      765.240     573.986    -406.995
  C      766.721     575.886    -406.701
  O      767.817     575.009    -406.684
  C      766.276     576.443    -408.052
  N      767.169     577.474    -408.557
  C      768.242     577.039    -409.341
  O      768.397     575.837    -409.568
  N      769.122     577.971    -409.826
  C      768.988     579.214    -409.502
  N      769.906     580.085    -410.007
  C      767.902     579.713    -408.625
  C      767.037     578.795    -408.202
  O      761.121     579.534    -404.882
  O      763.454     579.158    -403.901
  H      767.961     574.646    -405.780
  H      762.977     579.525    -403.132
  H      767.847     580.763    -408.366
  H      766.203     579.066    -407.553
  H      766.214     575.640    -408.805
  H      766.976     576.705    -406.015
  H      765.412     574.992    -405.177
  H      763.478     575.697    -407.070
  H      770.642     579.698    -410.590
  H      763.644     576.679    -404.727
  H      769.915     581.076    -409.802
  H      764.825     577.840    -405.370
  P      764.908     572.581    -406.299
  C      766.418     570.956    -407.618
  O      765.088     571.401    -407.371
  O      763.597     572.552    -405.582
  O      766.113     572.332    -405.272
  H      765.781     571.824    -404.509
  H      766.402     570.173    -408.347
  H      766.846     570.589    -406.709
  H      767.005     571.772    -407.984

 6  7  8  9  10  11  12  13  14  15  16  26  30  31  32  33  35 0
 6-311+G(2d,p)
 ****
 37  38 0
 6-311+G(2d,p)
 ****
 1  2  3  4  5  17  18  19  20  21  22  23  24  25 0
 3-21G
 ****
 27  28  29  34  36  39  40  41  42  43  44  45  46 0
 3-21G
 ****


