%nproc=1
%NoSave
%Mem=1900MB
#P OB98/GEN NMR

erre ene a

0 1
  C     -249.503    -325.631     458.573
  O     -248.243    -325.043     458.819
  P     -248.026    -323.470     458.991
  C     -248.012    -323.430     461.590
  O     -248.677    -323.026     460.396
  C     -247.549    -322.245     462.454
  O     -246.543    -321.500     461.738
  C     -248.720    -321.282     462.689
  O     -249.650    -321.527     463.729
  C     -248.086    -319.892     462.710
  O     -247.853    -319.411     464.038
  C     -246.759    -320.095     461.972
  N     -245.644    -315.742     459.631
  C     -245.313    -316.146     460.909
  N     -244.792    -315.199     461.716
  N     -245.508    -317.364     461.357
  C     -246.127    -318.171     460.460
  C     -246.484    -317.887     459.157
  C     -246.230    -316.555     458.670
  O     -246.578    -316.124     457.569
  N     -247.160    -318.926     458.575
  C     -247.247    -319.827     459.530
  N     -246.674    -319.403     460.704
  O     -248.278    -322.618     457.786
  O     -246.447    -323.399     459.312
  H     -247.400    -318.554     463.966
  H     -246.106    -322.570     458.914
  H     -245.538    -314.768     459.372
  H     -247.742    -320.789     459.432
  H     -245.921    -319.747     462.583
  H     -248.754    -319.162     462.228
  H     -244.770    -314.224     461.462
  H     -249.329    -321.297     461.779
  H     -244.704    -315.414     462.704
  H     -247.074    -322.587     463.376
  H     -247.162    -324.054     461.299
  H     -248.685    -324.063     462.179
  P     -251.188    -321.101     463.745
  C     -252.370    -323.193     462.861
  O     -251.937    -321.877     462.564
  O     -251.186    -319.580     463.234
  O     -251.853    -321.199     465.081
  H     -251.995    -319.133     463.537
  H     -252.583    -323.713     461.925
  H     -253.290    -323.150     463.458
  H     -251.597    -323.737     463.412
  H     -249.392    -326.693     458.497
  H     -249.903    -325.247     457.658
  H     -250.168    -325.399     459.378

 3  4  5  6  7  8  9  10  11  12  23  26  30  31 0
 6-311+G(2d,p)
 ****
 33  35  36  37  38 0
 6-311+G(2d,p)
 ****
 1  2  13  14  15  16  17  18  19  20  21  22  24  25 0
 3-21G
 ****
 27  28  29  32  34  39  40  41  42  43  44  45  46  47  48  49 0
 3-21G
 ****


