%nproc=1
%NoSave
%Mem=1900MB
#P OB98/GEN NMR

erre ene a

0 1
  C     -558.419    -449.793      31.046
  O     -559.172    -450.702      30.255
  P     -560.181    -451.695      30.998
  C     -562.207    -450.127      30.545
  O     -561.435    -450.838      31.509
  C     -563.711    -450.296      30.822
  O     -564.025    -449.743      32.129
  C     -564.611    -449.590      29.791
  O     -565.806    -450.354      29.615
  C     -564.985    -448.299      30.484
  O     -566.199    -447.759      29.966
  C     -565.086    -448.764      31.945
  N     -567.616    -445.524      34.887
  C     -568.060    -446.672      34.266
  N     -569.375    -446.944      34.371
  N     -567.282    -447.476      33.594
  C     -565.985    -447.088      33.569
  C     -565.416    -445.976      34.158
  C     -566.294    -445.070      34.883
  O     -565.970    -444.020      35.437
  N     -564.071    -445.912      33.937
  C     -563.811    -446.961      33.181
  N     -564.943    -447.685      32.891
  O     -559.401    -452.068      32.348
  O     -560.530    -452.928      30.220
  H     -566.475    -447.039      30.555
  H     -559.045    -452.980      32.288
  H     -568.259    -444.932      35.372
  H     -562.840    -447.240      32.791
  H     -566.034    -449.277      32.139
  H     -564.192    -447.552      30.357
  H     -570.051    -446.327      34.812
  H     -564.127    -449.415      28.821
  H     -569.741    -447.763      33.889
  H     -563.926    -451.361      30.868
  H     -561.982    -450.519      29.553
  H     -561.940    -449.061      30.559
  P     -566.508    -450.225      28.180
  C     -565.641    -452.622      27.641
  O     -565.777    -451.274      27.220
  O     -565.994    -448.803      27.650
  O     -568.000    -450.313      28.223
  H     -566.636    -448.428      27.007
  H     -566.187    -453.258      26.953
  H     -566.024    -452.768      28.654
  H     -564.576    -452.902      27.621
  H     -557.794    -449.200      30.411
  H     -557.810    -450.340      31.735
  H     -559.085    -449.155      31.587

 3  4  5  6  7  8  9  10  11  12  23  26  30  31 0
 6-311+G(2d,p)
 ****
 33  35  36  37  38 0
 6-311+G(2d,p)
 ****
 1  2  13  14  15  16  17  18  19  20  21  22  24  25 0
 3-21G
 ****
 27  28  29  32  34  39  40  41  42  43  44  45  46  47  48  49 0
 3-21G
 ****


