%nproc=1
%NoSave
%Mem=1900MB
#P OB98/GEN NMR

erre ene a

0 1
  C     -180.060     526.793    1045.104
  O     -178.787     526.166    1045.160
  P     -178.586     524.621    1044.782
  C     -178.308     525.041    1042.219
  O     -177.698     524.562    1043.428
  C     -177.398     526.008    1041.447
  O     -177.170     527.207    1042.219
  C     -176.012     525.370    1041.231
  O     -175.797     524.494    1040.146
  C     -175.023     526.550    1041.309
  O     -174.650     527.018    1040.025
  C     -175.817     527.612    1042.074
  N     -171.612     528.581    1044.775
  C     -171.792     528.606    1043.400
  N     -170.666     528.718    1042.671
  N     -172.957     528.504    1042.823
  C     -173.975     528.291    1043.701
  C     -173.948     528.264    1045.072
  C     -172.641     528.421    1045.693
  O     -172.427     528.314    1046.914
  N     -175.156     527.970    1045.625
  C     -175.943     527.773    1044.575
  N     -175.271     527.927    1043.383
  O     -179.769     523.728    1044.913
  O     -177.506     524.169    1045.898
  H     -175.454     527.125    1039.474
  H     -177.689     523.239    1046.137
  H     -170.687     528.582    1045.150
  H     -176.987     527.490    1044.620
  H     -175.832     528.557    1041.510
  H     -174.102     526.237    1041.794
  H     -169.733     528.646    1043.079
  H     -175.796     524.769    1042.117
  H     -170.748     528.573    1041.652
  H     -177.877     526.351    1040.513
  H     -179.251     525.535    1042.509
  H     -178.559     524.201    1041.581
  P     -175.052     523.069    1040.193
  C     -177.003     521.458    1040.661
  O     -176.069     521.953    1039.696
  O     -174.925     522.757    1041.787
  O     -173.699     523.037    1039.553
  H     -174.204     522.116    1041.941
  H     -177.415     520.515    1040.299
  H     -177.802     522.188    1040.787
  H     -176.505     521.292    1041.617
  H     -179.966     527.818    1045.395
  H     -180.733     526.294    1045.770
  H     -180.441     526.739    1044.105

 3  4  5  6  7  8  9  10  11  12  23  26  30  31 0
 6-311+G(2d,p)
 ****
 33  35  36  37  38 0
 6-311+G(2d,p)
 ****
 1  2  13  14  15  16  17  18  19  20  21  22  24  25 0
 3-21G
 ****
 27  28  29  32  34  39  40  41  42  43  44  45  46  47  48  49 0
 3-21G
 ****


