%nproc=1
%NoSave
%Mem=1900MB
#P OB98/GEN NMR

erre ene a

0 1
  C     -313.676     268.688      77.403
  O     -313.650     269.710      76.404
  P     -313.541     269.221      74.874
  C     -311.611     268.831      73.167
  O     -311.988     269.275      74.465
  C     -310.210     269.328      72.811
  O     -310.214     270.747      72.551
  C     -309.174     269.132      73.911
  O     -308.686     267.795      73.939
  C     -308.085     270.099      73.465
  O     -307.258     269.470      72.464
  C     -308.889     271.252      72.851
  N     -306.892     275.694      74.276
  C     -306.463     274.790      73.317
  N     -305.356     275.140      72.622
  N     -307.062     273.659      73.065
  C     -308.172     273.457      73.812
  C     -308.696     274.269      74.796
  C     -308.003     275.509      75.089
  O     -308.329     276.322      75.951
  N     -309.839     273.731      75.337
  C     -310.023     272.612      74.663
  N     -309.029     272.393      73.737
  O     -314.175     270.445      74.060
  O     -314.244     267.937      74.592
  H     -307.857     269.142      71.768
  H     -314.549     270.128      73.216
  H     -306.387     276.548      74.436
  H     -310.853     271.928      74.800
  H     -308.454     271.600      71.905
  H     -307.423     270.394      74.282
  H     -304.888     276.031      72.715
  H     -309.575     269.445      74.883
  H     -305.049     274.511      71.892
  H     -309.889     268.809      71.896
  H     -312.326     269.193      72.425
  H     -311.655     267.735      73.140
  P     -309.306     266.817      75.052
  C     -308.937     266.563      77.607
  O     -308.750     267.356      76.456
  O     -308.502     265.450      74.815
  O     -310.784     266.626      74.954
  H     -309.050     264.690      75.081
  H     -308.731     265.509      77.402
  H     -309.966     266.671      77.969
  H     -308.250     266.907      78.391
  H     -313.750     269.137      78.371
  H     -312.777     268.110      77.346
  H     -314.520     268.051      77.240

 3  4  5  6  7  8  9  10  11  12  23  26  30  31  33  0
 6-311+G(2d,p)
 ****
 35  36  37  38 0
 6-311+G(2d,p)
 ****
 1  2  13  14  15  16  17  18  19  20  21  22  24  25  27  28  29 0
 3-21G
 ****
 32  34  39  40  41  42  43  44  45  46  47  48  49 0
 3-21G
 ****


