%nproc=1
%NoSave
%Mem=1900MB
#P OB98/GEN NMR

erre ene a

0 1
  C      588.571     207.657     238.688
  O      588.981     207.589     240.042
  P      588.395     208.686     241.056
  C      588.386     211.317     240.961
  O      588.984     210.090     240.555
  C      589.005     212.484     240.194
  O      588.586     212.442     238.822
  C      588.601     213.867     240.709
  O      589.303     214.223     241.893
  C      588.928     214.737     239.489
  O      590.337     215.025     239.453
  C      588.541     213.804     238.327
  N      587.229     214.118     237.750
  C      587.177     215.229     236.918
  O      588.156     215.938     236.672
  N      585.941     215.523     236.399
  C      584.773     214.864     236.668
  O      583.690     215.207     236.209
  C      584.888     213.716     237.572
  C      586.094     213.403     238.061
  O      589.229     208.341     242.382
  O      586.911     208.619     241.201
  H      590.089     207.927     242.171
  H      590.494     215.464     238.579
  H      585.882     216.319     235.770
  H      583.990     213.174     237.824
  H      586.199     212.558     238.744
  H      589.297     213.869     237.531
  H      588.393     215.688     239.509
  H      587.520     213.891     240.892
  H      590.106     212.370     240.228
  H      588.563     211.456     242.047
  H      587.310     211.270     240.794
  P      588.518     215.188     242.927
  C      587.499     217.579     242.736
  O      588.295     216.573     242.160
  O      589.677     215.502     243.993
  O      587.292     214.562     243.517
  H      590.549     215.670     243.571
  H      587.755     218.544     242.273
  H      587.673     217.660     243.823
  H      586.447     217.362     242.560
  H      589.038     206.869     238.134
  H      588.858     208.602     238.275
  H      587.508     207.551     238.632

 3  4  5  6  7  8  9  10  11  12  13  24  28  29  30  31  32 0
 6-311+G(2d,p)
 ****
 33  34 0
 6-311+G(2d,p)
 ****
 1  2  14  15  16  17  18  19  20  21  22  23  25  26  27 0
 3-21G
 ****
 35  36  37  38  39  40  41  42  43  44  45 0
 3-21G
 ****


