%nproc=1
%NoSave
%Mem=1900MB
#P OB98/GEN NMR

erre ene a

0 1
  C     -158.965      17.428     -44.057
  O     -159.630      17.975     -42.934
  H     -159.715      17.037     -44.751
  H     -158.301      16.611     -43.760
  H     -158.391      18.207     -44.571
  P     -158.743      18.383     -41.659
  C     -160.642      19.153     -40.083
  O     -159.564      19.558     -40.926
  C     -161.082      20.297     -39.167
  O     -159.980      20.731     -38.349
  C     -161.539      21.541     -39.919
  O     -162.756      21.387     -40.616
  C     -161.411      22.630     -38.860
  O     -162.560      22.748     -38.025
  C     -160.207      22.123     -38.026
  N     -159.015      22.935     -38.232
  C     -159.126      24.277     -37.892
  O     -160.167      24.784     -37.464
  N     -158.014      25.037     -38.104
  C     -156.840      24.612     -38.655
  O     -155.888      25.357     -38.861
  C     -156.789      23.186     -39.022
  C     -157.859      22.422     -38.795
  O     -157.313      18.731     -41.941
  O     -158.917      17.143     -40.661
  H     -163.322      22.916     -38.613
  H     -158.217      17.149     -39.962
  H     -158.072      26.015     -37.852
  H     -155.871      22.806     -39.467
  H     -157.849      21.366     -39.055
  H     -160.452      22.155     -36.956
  H     -161.242      23.611     -39.310
  H     -160.787      21.770     -40.685
  H     -161.872      19.925     -38.503
  H     -160.290      18.314     -39.469
  H     -161.481      18.810     -40.699
  P     -162.862      21.377     -42.208
  C     -164.966      22.908     -42.130
  O     -164.390      21.699     -42.609
  O     -162.145      20.279     -42.929
  O     -162.122      22.762     -42.580
  H     -161.654      22.625     -43.428
  H     -165.976      22.983     -42.475
  H     -164.402      23.741     -42.495
  H     -164.953      22.910     -41.060

 6  7  8  9  10  11  12  13  14  15  16  26  31  32  33  34  35 0
 6-311+G(2d,p)
 ****
 36  37 0
 6-311+G(2d,p)
 ****
 1  2  3  4  5  17  18  19  20  21  22  23  24  25 0
 3-21G
 ****
 27  28  29  30  38  39  40  41  42  43  44  45 0
 3-21G
 ****


