%nproc=1
%NoSave
%Mem=1900MB
#P OB98/GEN NMR

erre ene a

0 1
  C     -156.292     440.791    -193.359
  O     -156.470     439.463    -193.811
  H     -157.123     441.087    -192.715
  H     -155.363     440.848    -192.784
  H     -156.222     441.473    -194.213
  P     -157.800     439.156    -194.651
  C     -160.343     439.407    -194.156
  O     -159.014     439.536    -193.671
  C     -161.219     440.481    -193.520
  O     -160.833     441.789    -194.006
  C     -162.703     440.339    -193.845
  O     -163.354     439.395    -193.013
  C     -163.190     441.749    -193.564
  O     -163.309     441.954    -192.145
  C     -162.040     442.594    -194.131
  N     -164.419     445.783    -197.357
  C     -164.404     445.711    -196.008
  N     -163.727     444.847    -195.223
  C     -163.002     443.997    -195.970
  C     -162.916     443.952    -197.352
  C     -163.675     444.900    -198.058
  N     -163.720     444.955    -199.437
  N     -162.087     442.923    -197.753
  C     -161.669     442.368    -196.634
  N     -162.218     442.960    -195.527
  O     -157.864     437.557    -194.696
  O     -157.878     439.783    -196.004
  H     -163.529     442.899    -192.011
  H     -158.507     437.262    -195.369
  H     -165.013     446.444    -195.490
  H     -160.979     441.537    -196.565
  H     -161.880     443.523    -193.570
  H     -164.175     441.951    -193.999
  H     -162.860     440.111    -194.906
  H     -161.053     440.468    -192.436
  H     -160.727     438.416    -193.891
  H     -164.404     445.571    -199.850
  H     -163.286     444.215    -199.965
  H     -160.344     439.517    -195.245
  P     -164.684     438.697    -193.587
  C     -167.224     439.219    -193.434
  O     -165.895     439.702    -193.282
  O     -164.929     437.499    -192.553
  O     -164.575     438.215    -194.996
  H     -165.340     436.734    -192.999
  H     -167.916     439.999    -193.196
  H     -167.380     438.391    -192.775
  H     -167.375     438.903    -194.445

 6  7  8  9  10  11  12  13  14  15  25  28  32  33  34  35 0
 6-311+G(2d,p)
 ****
 36  39  40 0
 6-311+G(2d,p)
 ****
 1  2  3  4  5  16  17  18  19  20  21  22  23  24 0
 3-21G
 ****
 26  27  29  30  31  37  38  41  42  43  44  45  46  47 0
 3-21G
 ****
 48 0
 3-21G
 ****


