%nproc=1
%NoSave
%Mem=1900MB
#P OB98/GEN NMR

erre ene a

0 1
  C      459.011     862.803    -325.322
  O      459.790     861.597    -325.270
  P      458.985     860.212    -325.218
  C      459.652     857.710    -325.431
  O      460.057     859.032    -325.099
  C      460.866     856.874    -325.885
  O      461.415     857.394    -327.105
  C      462.009     856.855    -324.894
  O      461.780     855.938    -323.832
  C      463.161     856.369    -325.786
  O      463.125     854.935    -325.893
  C      462.830     857.012    -327.134
  N      466.521     859.026    -329.983
  C      465.987     857.752    -329.986
  N      466.484     856.909    -330.903
  N      465.039     857.340    -329.174
  C      464.614     858.332    -328.327
  C      465.059     859.624    -328.230
  C      466.131     860.043    -329.109
  O      466.666     861.144    -329.119
  N      464.387     860.310    -327.262
  C      463.496     859.451    -326.800
  N      463.605     858.222    -327.412
  O      458.421     860.060    -326.716
  O      457.880     860.186    -324.208
  H      462.303     854.707    -326.375
  H      457.616     859.526    -326.720
  H      467.254     859.283    -330.617
  H      462.752     859.655    -326.034
  H      462.971     856.328    -327.964
  H      464.151     856.642    -325.380
  H      467.162     857.161    -331.609
  H      462.232     857.868    -324.518
  H      466.083     855.971    -330.945
  H      460.515     855.850    -326.082
  H      458.916     857.734    -326.243
  H      459.161     857.250    -324.566
  P      461.716     856.542    -322.339
  C      459.920     856.073    -320.516
  O      460.775     855.540    -321.509
  O      460.833     857.859    -322.521
  O      463.062     856.842    -321.740
  H      461.077     858.527    -321.840
  H      459.447     856.995    -320.848
  H      460.511     856.275    -319.606
  H      459.158     855.353    -320.268
  H      459.665     863.649    -325.353
  H      458.390     862.864    -324.453
  H      458.398     862.794    -326.199

 3  4  5  6  7  8  9  10  11  12  23  26  30  31  33  0
 6-311+G(2d,p)
 ****
 35  36  37  38 0
 6-311+G(2d,p)
 ****
 1  2  13  14  15  16  17  18  19  20  21  22  24  25  27  28  29 0
 3-21G
 ****
 32  34  39  40  41  42  43  44  45  46  47  48  49 0
 3-21G
 ****


