%nproc=1
%NoSave
%Mem=1900MB
#P OB98/GEN NMR

erre ene a

0 1
  C      435.452     721.982     659.133
  O      434.368     722.750     659.660
  P      434.336     723.004     661.250
  C      431.871     722.283     661.719
  O      432.833     723.339     661.683
  C      430.619     722.741     662.480
  O      430.867     722.820     663.892
  C      430.148     724.112     662.073
  O      429.448     724.080     660.828
  C      429.263     724.510     663.262
  O      427.896     724.111     663.062
  C      429.909     723.740     664.432
  N      430.530     724.630     665.418
  C      429.639     725.246     666.308
  O      428.425     725.054     666.235
  N      430.164     726.095     667.261
  C      431.440     726.332     667.291
  N      431.894     727.169     668.254
  C      432.396     725.709     666.351
  C      431.881     724.874     665.440
  O      435.096     724.403     661.415
  O      435.005     721.919     662.045
  H      427.596     724.593     662.266
  H      435.588     724.427     662.246
  H      433.457     725.926     666.397
  H      432.499     724.379     664.702
  H      429.146     723.145     664.944
  H      429.246     725.601     663.405
  H      431.001     724.799     661.994
  H      429.830     721.994     662.284
  H      431.210     727.572     668.882
  H      432.304     721.400     662.194
  H      432.871     727.426     668.367
  H      431.641     721.998     660.691
  P      430.143     724.765     659.566
  C      428.483     726.726     659.507
  O      428.971     725.565     658.828
  O      430.363     723.517     658.569
  O      431.423     725.507     659.802
  H      430.868     723.796     657.792
  H      427.851     727.284     658.809
  H      429.305     727.369     659.811
  H      427.882     726.429     660.370
  H      435.345     721.895     658.072
  H      435.446     721.007     659.574
  H      436.377     722.469     659.359

 3  4  5  6  7  8  9  10  11  12  13  21  23  27  28  29  30  32 0
 6-311+G(2d,p)
 ****
 34  35 0
 6-311+G(2d,p)
 ****
 1  2  14  15  16  17  18  19  20  22  24  25  26 0
 3-21G
 ****
 31  33  36  37  38  39  40  41  42  43  44  45  46 0
 3-21G
 ****


