%nproc=1
%NoSave
%Mem=1900MB
#P OB98/GEN NMR

erre ene a

0 1
  C      218.001     -89.391      57.684
  O      216.688     -89.081      58.120
  P      216.403     -88.619      59.636
  C      217.262     -86.192      59.384
  O      217.498     -87.483      59.925
  C      217.755     -85.122      60.358
  O      216.889     -85.087      61.507
  C      219.162     -85.356      60.897
  O      220.144     -85.021      59.931
  C      219.136     -84.481      62.147
  O      219.351     -83.104      61.792
  C      217.690     -84.672      62.649
  N      217.595     -85.646      63.735
  C      218.176     -85.268      64.953
  O      218.729     -84.178      65.086
  N      218.087     -86.138      66.011
  C      217.495     -87.283      65.865
  N      217.377     -88.076      66.969
  C      216.920     -87.741      64.588
  C      217.002     -86.873      63.573
  O      216.371     -89.725      60.631
  O      215.051     -87.777      59.545
  H      218.609     -82.843      61.209
  H      214.234     -88.332      59.647
  H      216.454     -88.714      64.510
  H      216.590     -87.120      62.609
  H      217.276     -83.713      62.982
  H      219.899     -84.756      62.888
  H      219.289     -86.408      61.186
  H      217.702     -84.141      59.853
  H      217.626     -87.648      67.856
  H      216.186     -86.071      59.228
  H      216.703     -88.824      67.014
  H      217.773     -86.102      58.412
  P      221.611     -85.649      60.110
  C      221.027     -87.861      58.887
  O      221.403     -87.245      60.103
  O      221.976     -85.302      61.628
  O      222.627     -85.130      59.148
  H      222.578     -84.535      61.668
  H      221.157     -88.944      58.986
  H      221.647     -87.504      58.062
  H      219.971     -87.660      58.674
  H      217.977     -89.674      56.652
  H      218.389     -90.200      58.267
  H      218.629     -88.533      57.804

 3  4  5  6  7  8  9  10  11  12  13  23  27  28  29  30  32 0
 6-311+G(2d,p)
 ****
 34  35 0
 6-311+G(2d,p)
 ****
 1  2  14  15  16  17  18  19  20  21  22  24  25  26 0
 3-21G
 ****
 31  33  36  37  38  39  40  41  42  43  44  45  46 0
 3-21G
 ****


