%nproc=1
%NoSave
%Mem=1900MB
#P OB98/GEN NMR

erre ene a

0 1
  C       38.947     -18.900    -122.084
  O       37.685     -19.535    -121.927
  P       37.662     -21.071    -121.466
  C       35.077     -20.911    -121.342
  O       36.201     -21.642    -121.813
  C       33.851     -21.158    -122.221
  O       34.052     -20.511    -123.506
  C       33.555     -22.635    -122.499
  O       32.132     -22.770    -122.603
  C       34.175     -22.858    -123.865
  O       33.629     -23.994    -124.528
  C       33.869     -21.517    -124.525
  N       35.208     -23.006    -129.228
  C       34.274     -23.469    -128.371
  N       33.975     -23.019    -127.136
  C       34.762     -21.981    -126.806
  C       35.779     -21.422    -127.561
  C       35.993     -21.976    -128.835
  N       36.937     -21.499    -129.715
  N       36.380     -20.389    -126.875
  C       35.740     -20.325    -125.726
  N       34.739     -21.250    -125.650
  O       37.650     -20.958    -119.870
  O       38.805     -21.897    -121.945
  H       34.089     -24.100    -125.381
  H       38.498     -21.281    -119.508
  H       33.682     -24.308    -128.728
  H       35.962     -19.635    -124.925
  H       32.832     -21.456    -124.877
  H       35.254     -23.014    -123.760
  H       33.947     -23.320    -121.740
  H       32.986     -20.675    -121.749
  H       35.316     -19.845    -121.368
  H       36.937     -21.857    -130.655
  H       37.395     -20.618    -129.508
  H       34.864     -21.195    -120.307
  P       31.443     -23.910    -121.710
  C       29.295     -23.164    -122.957
  O       30.028     -24.230    -122.385
  O       31.057     -23.138    -120.361
  O       32.321     -25.087    -121.440
  H       31.042     -23.762    -119.613
  H       28.741     -23.541    -123.820
  H       29.948     -22.349    -123.283
  H       28.586     -22.781    -122.219
  H       38.800     -17.886    -122.393
  H       39.518     -19.419    -122.825
  H       39.473     -18.917    -121.152

 3  4  5  6  7  8  9  10  11  12  22  25  29  30  31  32 0
 6-311+G(2d,p)
 ****
 33  36  37 0
 6-311+G(2d,p)
 ****
 1  2  13  14  15  16  17  18  19  20  21  23  24  26 0
 3-21G
 ****
 27  28  34  35  38  39  40  41  42  43  44  45  46  47  48 0
 3-21G
 ****


