%nproc=1
%NoSave
%Mem=1900MB
#P OB98/GEN NMR

erre ene a

0 1
  C      127.014     406.988      69.186
  O      126.505     407.185      70.492
  P      127.381     408.051      71.514
  C      125.144     408.642      72.718
  O      126.506     408.250      72.841
  C      124.523     408.796      74.108
  O      125.380     409.599      74.952
  C      123.173     409.499      74.098
  O      122.135     408.624      73.704
  C      123.065     409.968      75.547
  O      122.574     408.914      76.392
  C      124.535     410.300      75.889
  N      124.793     411.736      75.893
  C      124.395     412.423      77.032
  O      123.834     411.877      77.981
  N      124.628     413.775      77.029
  C      125.160     414.492      75.997
  O      125.292     415.712      76.032
  C      125.535     413.713      74.804
  C      125.333     412.396      74.805
  O      127.412     409.509      70.853
  O      128.756     407.523      71.754
  H      121.698     408.656      76.036
  H      128.280     409.930      71.019
  H      124.374     414.287      77.858
  H      125.956     414.257      73.969
  H      125.587     411.808      73.930
  H      124.782     409.906      76.877
  H      122.379     410.811      75.656
  H      123.218     410.379      73.442
  H      124.439     407.803      74.562
  H      124.599     407.879      72.154
  H      125.089     409.585      72.164
  P      121.228     409.082      72.462
  C      120.460     406.610      72.110
  O      120.097     407.954      72.334
  O      122.235     408.807      71.246
  O      120.753     410.493      72.573
  H      122.821     408.051      71.417
  H      121.389     406.351      72.630
  H      120.587     406.440      71.038
  H      119.657     405.961      72.480
  H      126.326     406.395      68.621
  H      127.956     406.484      69.243
  H      127.145     407.936      68.707

 3  4  5  6  7  8  9  10  11  12  13  23  28  29  30  31  32 0
 6-311+G(2d,p)
 ****
 33  34 0
 6-311+G(2d,p)
 ****
 1  2  14  15  16  17  18  19  20  21  22  24  25  26 0
 3-21G
 ****
 27  35  36  37  38  39  40  41  42  43  44  45 0
 3-21G
 ****


