%nproc=1
%NoSave
%Mem=1900MB
#P OB98/GEN NMR

erre ene a

0 1
  C       21.335     -24.491     -59.503
  O       22.459     -25.283     -59.829
  H       20.432     -25.083     -59.673
  H       21.297     -23.606     -60.141
  H       21.364     -24.191     -58.452
  P       23.924     -24.700     -59.544
  C       23.746     -24.120     -62.048
  O       24.303     -23.764     -60.789
  C       24.149     -23.094     -63.103
  O       23.839     -21.759     -62.648
  C       25.640     -23.090     -63.421
  O       25.986     -24.194     -64.232
  C       25.778     -21.728     -64.085
  O       25.334     -21.772     -65.450
  C       24.818     -20.868     -63.230
  N       25.514     -20.100     -62.195
  C       26.293     -19.038     -62.640
  O       26.415     -18.740     -63.826
  N       26.973     -18.351     -61.668
  C       27.016     -18.676     -60.344
  O       27.805     -18.173     -59.550
  C       26.115     -19.758     -59.923
  C       25.427     -20.422     -60.855
  O       24.961     -25.707     -59.172
  O       23.684     -23.643     -58.363
  H       23.950     -24.044     -57.513
  H       24.389     -22.019     -65.426
  H       27.580     -17.608     -61.985
  H       26.071     -20.005     -58.869
  H       24.779     -21.243     -60.570
  H       24.267     -20.162     -63.865
  H       26.810     -21.374     -64.096
  H       26.223     -23.090     -62.492
  H       23.559     -23.287     -64.010
  H       22.654     -24.136     -61.954
  H       24.094     -25.121     -62.324
  P       27.305     -25.052     -63.944
  C       28.282     -24.039     -66.087
  O       28.525     -24.366     -64.726
  O       27.169     -26.521     -64.178
  O       27.645     -24.747     -62.409
  H       27.738     -25.593     -61.928
  H       29.157     -23.590     -66.508
  H       27.464     -23.352     -66.148
  H       28.042     -24.929     -66.630

 6  7  8  9  10  11  12  13  14  15  16  27  31  32  33  34  35 0
 6-311+G(2d,p)
 ****
 36  37 0
 6-311+G(2d,p)
 ****
 1  2  3  4  5  17  18  19  20  21  22  23  24  25 0
 3-21G
 ****
 26  28  29  30  38  39  40  41  42  43  44  45 0
 3-21G
 ****


