%nproc=1
%NoSave
%Mem=1900MB
#P OB98/GEN NMR

erre ene a

0 1
  C      -59.568     162.377     485.330
  O      -58.816     162.847     486.422
  H      -59.395     161.295     485.224
  H      -59.269     162.869     484.403
  H      -60.642     162.534     485.509
  P      -58.846     164.418     486.753
  C      -60.790     164.264     488.453
  O      -60.343     164.774     487.196
  C      -61.012     165.416     489.434
  O      -62.130     166.212     488.945
  C      -61.362     164.916     490.849
  O      -60.528     165.477     491.864
  C      -62.865     165.178     490.959
  O      -63.345     165.369     492.273
  C      -63.080     166.379     490.026
  N      -64.435     166.492     489.491
  C      -65.355     167.226     490.248
  O      -65.099     167.803     491.302
  N      -66.613     167.280     489.725
  C      -67.052     166.699     488.564
  O      -68.195     166.806     488.148
  C      -66.041     165.921     487.837
  C      -64.804     165.855     488.316
  O      -58.270     165.311     485.706
  O      -58.034     164.536     488.133
  H      -63.263     164.501     492.733
  H      -57.129     164.874     487.951
  H      -67.288     167.834     490.252
  H      -66.358     165.437     486.919
  H      -64.028     165.285     487.810
  H      -62.833     167.315     490.537
  H      -63.392     164.308     490.534
  H      -61.184     163.842     490.944
  H      -60.121     166.056     489.446
  H      -60.018     163.586     488.829
  H      -61.724     163.709     488.314
  P      -59.617     164.629     492.872
  C      -57.161     165.378     492.310
  O      -58.189     164.400     492.178
  O      -60.271     163.431     493.482
  O      -59.293     165.671     494.047
  H      -59.228     165.143     494.882
  H      -56.289     165.052     491.783
  H      -56.924     165.509     493.345
  H      -57.498     166.307     491.901

 6  7  8  9  10  11  12  13  14  15  16  26  31  32  33  34  35 0
 6-311+G(2d,p)
 ****
 36  37 0
 6-311+G(2d,p)
 ****
 1  2  3  4  5  17  18  19  20  21  22  23  24  25 0
 3-21G
 ****
 27  28  29  30  38  39  40  41  42  43  44  45 0
 3-21G
 ****


