%nproc=1
%NoSave
%Mem=1900MB
#P OB98/GEN NMR

erre ene a

0 1
  C      -74.556      -9.261     129.999
  O      -73.813     -10.385     129.574
  H      -74.538      -8.506     129.209
  H      -74.108      -8.836     130.902
  H      -75.594      -9.541     130.198
  P      -73.805     -11.664     130.541
  C      -75.854     -12.711     129.320
  O      -74.499     -12.857     129.719
  C      -76.018     -13.162     127.867
  O      -75.137     -12.363     127.032
  C      -75.652     -14.634     127.644
  O      -76.532     -15.193     126.665
  C      -74.241     -14.561     127.085
  O      -73.867     -15.699     126.321
  C      -74.321     -13.271     126.262
  N      -73.006     -12.690     126.000
  C      -72.408     -12.984     124.778
  O      -72.936     -13.636     123.877
  N      -71.138     -12.495     124.609
  C      -70.419     -11.779     125.524
  O      -69.275     -11.390     125.321
  C      -71.101     -11.509     126.798
  C      -72.342     -11.969     126.974
  O      -74.904     -11.296     131.646
  O      -72.484     -12.013     131.140
  H      -74.490     -10.832     132.400
  H      -73.030     -15.490     125.857
  H      -70.690     -12.698     123.729
  H      -70.559     -10.952     127.552
  H      -72.868     -11.797     127.907
  H      -74.841     -13.456     125.313
  H      -73.519     -14.453     127.904
  H      -75.694     -15.227     128.559
  H      -77.046     -12.957     127.543
  H      -76.142     -11.658     129.405
  H      -76.491     -13.311     129.978
  P      -77.003     -16.715     126.878
  C      -79.383     -16.702     127.964
  O      -78.608     -16.693     126.779
  O      -76.703     -16.924     128.432
  O      -76.317     -17.672     125.961
  H      -76.879     -16.134     128.973
  H      -80.422     -16.685     127.711
  H      -79.145     -15.841     128.552
  H      -79.167     -17.587     128.525

 6  7  8  9  10  11  12  13  14  15  16  27  31  32  33  34  35 0
 6-311+G(2d,p)
 ****
 36  37 0
 6-311+G(2d,p)
 ****
 1  2  3  4  5  17  18  19  20  21  22  23  24  25 0
 3-21G
 ****
 26  28  29  30  38  39  40  41  42  43  44  45 0
 3-21G
 ****


