%nproc=1
%NoSave
%Mem=1900MB
#P OB98/GEN NMR

erre ene a

0 1
  C      598.643    -182.673     822.550
  O      598.612    -184.034     822.106
  P      598.396    -184.286     820.536
  C      600.831    -185.060     820.053
  O      599.811    -184.101     819.805
  C      602.174    -184.531     819.552
  O      602.687    -183.471     820.381
  C      603.270    -185.591     819.553
  O      603.100    -186.490     818.462
  C      604.521    -184.721     819.451
  O      604.727    -184.288     818.087
  C      604.130    -183.515     820.318
  N      607.327    -181.331     823.666
  C      607.016    -181.019     822.382
  N      606.161    -181.658     821.560
  C      605.590    -182.702     822.185
  C      605.811    -183.140     823.475
  C      606.724    -182.402     824.243
  N      607.066    -182.719     825.535
  N      605.037    -184.252     823.761
  C      604.379    -184.493     822.649
  N      604.671    -183.590     821.675
  O      597.558    -183.005     820.076
  O      597.680    -185.561     820.220
  H      605.011    -185.085     817.583
  H      596.640    -183.258     819.877
  H      607.520    -180.156     821.976
  H      603.705    -185.331     822.497
  H      604.469    -182.563     819.885
  H      605.419    -185.235     819.771
  H      603.279    -186.139     820.492
  H      602.031    -184.148     818.533
  H      600.590    -186.000     819.549
  H      607.810    -182.190     825.978
  H      606.700    -183.569     825.940
  H      600.869    -185.266     821.131
  P      602.225    -187.822     818.720
  C      600.354    -186.924     817.194
  O      600.708    -187.318     818.514
  O      602.324    -187.968     820.312
  O      602.636    -189.007     817.920
  H      602.190    -187.120     820.762
  H      599.306    -186.647     817.184
  H      600.491    -187.753     816.502
  H      600.959    -186.065     816.884
  H      598.792    -182.647     823.609
  H      597.715    -182.198     822.308
  H      599.445    -182.157     822.064

 3  4  5  6  7  8  9  10  11  12  22  25  29  30  31  32 0
 6-311+G(2d,p)
 ****
 33  36  37 0
 6-311+G(2d,p)
 ****
 1  2  13  14  15  16  17  18  19  20  21  23  24  26 0
 3-21G
 ****
 27  28  34  35  38  39  40  41  42  43  44  45  46  47  48 0
 3-21G
 ****


