%nproc=1
%NoSave
%Mem=1900MB
#P OB98/GEN NMR

erre ene a

0 1
  C     1066.284     179.973     347.545
  O     1066.815     180.264     346.265
  H     1067.089     179.597     348.180
  H     1065.518     179.200     347.456
  H     1065.863     180.870     348.003
  P     1065.892     181.110     345.268
  C     1065.656     179.265     343.458
  O     1065.002     180.056     344.435
  C     1064.683     178.257     342.847
  O     1065.294     177.681     341.663
  C     1064.311     177.100     343.790
  O     1062.929     176.783     343.607
  C     1065.173     175.954     343.297
  O     1064.614     174.677     343.626
  C     1065.243     176.247     341.808
  N     1067.105     171.871     340.127
  C     1065.853     172.169     340.596
  N     1064.947     171.176     340.643
  N     1065.495     173.382     341.005
  C     1066.483     174.295     340.868
  C     1067.773     174.114     340.410
  C     1068.153     172.782     340.000
  O     1069.255     172.441     339.590
  N     1068.483     175.281     340.459
  C     1067.638     176.164     340.944
  N     1066.406     175.620     341.194
  O     1066.931     181.661     344.180
  O     1065.122     182.225     345.892
  H     1063.700     174.662     343.269
  H     1066.977     182.633     344.228
  H     1067.329     170.928     339.832
  H     1067.855     177.208     341.130
  H     1064.359     175.873     341.262
  H     1066.173     176.013     343.761
  H     1065.131     170.246     340.305
  H     1064.499     177.342     344.839
  H     1064.006     171.389     340.955
  H     1063.790     178.795     342.513
  H     1066.494     178.728     343.928
  H     1066.056     179.921     342.674
  P     1061.934     177.156     344.810
  C     1061.169     174.756     345.407
  O     1061.877     175.912     345.816
  O     1060.491     177.137     344.110
  O     1062.204     178.476     345.443
  H     1060.153     178.040     344.004
  H     1061.219     174.016     346.178
  H     1061.607     174.368     344.511
  H     1060.146     175.011     345.223

 6  7  8  9  10  11  12  13  14  15  26  29  33  34 0
 6-311+G(2d,p)
 ****
 36  38  39  40  41 0
 6-311+G(2d,p)
 ****
 1  2  3  4  5  16  17  18  19  20  21  22  23  24  25 0
 3-21G
 ****
 27  28  30  31  32  35  37  42  43  44  45  46  47 0
 3-21G
 ****
 48  49 0
 3-21G
 ****


