%nproc=1
%NoSave
%Mem=1900MB
#P OB98/GEN NMR

erre ene a

0 1
  C      559.421      76.394     256.091
  O      558.037      76.538     256.342
  P      557.540      77.911     257.004
  C      555.193      76.772     257.061
  O      556.127      77.617     257.713
  C      554.644      75.741     258.049
  O      554.049      76.409     259.186
  C      553.553      74.851     257.480
  O      554.091      73.826     256.667
  C      552.874      74.334     258.747
  O      553.584      73.210     259.289
  C      552.988      75.556     259.681
  N      551.717      76.283     259.798
  C      551.037      76.114     260.998
  O      551.440      75.374     261.900
  N      549.844      76.787     261.107
  C      549.273      77.555     260.139
  O      548.172      78.083     260.280
  C      550.028      77.675     258.880
  C      551.200      77.045     258.779
  O      557.141      78.826     255.742
  O      558.543      78.584     257.878
  H      553.050      72.883     260.052
  H      557.373      79.754     255.925
  H      549.347      76.700     261.981
  H      549.597      78.282     258.090
  H      551.767      77.106     257.856
  H      553.291      75.231     260.677
  H      551.853      74.009     258.551
  H      552.839      75.460     256.902
  H      555.483      75.140     258.418
  H      555.679      76.268     256.233
  H      554.372      77.386     256.658
  P      553.280      73.423     255.344
  C      555.689      72.975     254.440
  O      554.323      72.613     254.437
  O      553.139      74.858     254.643
  O      551.984      72.747     255.640
  H      553.900      75.433     254.819
  H      556.016      73.307     255.420
  H      555.849      73.770     253.699
  H      556.284      72.094     254.146
  H      559.606      75.436     255.651
  H      559.961      76.474     257.011
  H      559.744      77.163     255.420

 3  4  5  6  7  8  9  10  11  12  13  23  28  29  30  31  32 0
 6-311+G(2d,p)
 ****
 33  34 0
 6-311+G(2d,p)
 ****
 1  2  14  15  16  17  18  19  20  21  22  24  25  26 0
 3-21G
 ****
 27  35  36  37  38  39  40  41  42  43  44  45 0
 3-21G
 ****


