%nproc=1
%NoSave
%Mem=1900MB
#P OB98/GEN NMR

erre ene a

0 1
  C      365.226     531.129    -193.803
  O      365.037     532.458    -194.264
  P      365.808     532.892    -195.614
  C      367.233     534.610    -194.300
  O      366.335     534.387    -195.375
  C      367.288     536.098    -193.920
  O      367.836     536.843    -195.045
  C      365.926     536.700    -193.569
  O      366.125     537.644    -192.510
  C      365.537     537.457    -194.829
  O      364.616     538.510    -194.543
  C      366.907     537.905    -195.347
  N      366.896     538.208    -196.768
  C      367.166     539.533    -197.142
  O      367.327     540.396    -196.281
  N      367.197     539.853    -198.484
  C      366.862     538.962    -199.359
  N      366.917     539.323    -200.676
  C      366.455     537.581    -199.001
  C      366.509     537.281    -197.706
  O      364.606     533.078    -196.655
  O      366.821     531.905    -196.087
  H      364.985     539.060    -193.809
  H      364.888     532.848    -197.562
  H      366.160     536.888    -199.776
  H      366.243     536.279    -197.351
  H      367.251     538.810    -194.801
  H      365.068     536.770    -195.541
  H      365.189     535.954    -193.251
  H      367.988     536.212    -193.087
  H      367.182     540.275    -200.888
  H      368.240     534.308    -194.598
  H      366.678     538.690    -201.427
  H      366.936     534.009    -193.430
  P      364.883     537.965    -191.551
  C      364.909     540.505    -191.962
  O      365.133     539.466    -191.031
  O      365.247     537.110    -190.248
  O      363.509     537.641    -192.037
  H      364.521     537.170    -189.597
  H      364.974     541.466    -191.445
  H      363.906     540.417    -192.409
  H      365.670     540.477    -192.753
  H      364.661     530.979    -192.907
  H      366.264     530.965    -193.602
  H      364.895     530.441    -194.553

 3  4  5  6  7  8  9  10  11  12  13  21  23  27  28  29  30  32 0
 6-311+G(2d,p)
 ****
 34  35 0
 6-311+G(2d,p)
 ****
 1  2  14  15  16  17  18  19  20  22  24  25  26 0
 3-21G
 ****
 31  33  36  37  38  39  40  41  42  43  44  45  46 0
 3-21G
 ****


