%nproc=1
%NoSave
%Mem=1900MB
#P OB98/GEN NMR

erre ene a

0 1
  C     -328.407      21.316     610.948
  O     -328.560      19.995     611.510
  P     -328.059      18.677     610.758
  C     -327.441      16.299     611.581
  O     -328.365      17.392     611.678
  C     -327.474      15.415     612.829
  O     -326.854      16.089     613.961
  C     -328.881      15.058     613.313
  O     -329.447      14.034     612.494
  C     -328.589      14.632     614.754
  O     -328.125      13.256     614.803
  C     -327.465      15.605     615.146
  N     -327.960      16.701     615.994
  C     -327.592      16.682     617.338
  O     -326.924      15.722     617.780
  N     -328.000      17.704     618.155
  C     -328.777      18.631     617.680
  N     -329.150      19.640     618.523
  C     -329.272      18.642     616.280
  C     -328.826      17.667     615.514
  O     -326.646      18.742     610.267
  O     -329.081      18.491     609.526
  H     -328.841      12.704     614.420
  H     -328.611      18.052     608.795
  H     -329.938      19.423     615.942
  H     -329.130      17.598     614.470
  H     -326.678      15.076     615.707
  H     -329.475      14.688     615.398
  H     -329.524      15.949     613.320
  H     -326.891      14.504     612.625
  H     -328.788      19.597     619.480
  H     -326.423      16.729     611.466
  H     -329.757      20.406     618.262
  H     -327.686      15.717     610.690
  P     -330.381      14.459     611.255
  C     -330.640      13.580     608.846
  O     -330.330      13.262     610.185
  O     -330.132      15.814     610.692
  O     -331.869      14.335     611.833
  H     -332.438      15.001     611.393
  H     -330.197      12.850     608.175
  H     -330.266      14.593     608.580
  H     -331.740      13.589     608.712
  H     -328.813      22.040     611.623
  H     -328.927      21.369     610.014
  H     -327.368      21.518     610.790

 3  4  5  6  7  8  9  10  11  12  13  23  27  28  29  30  32 0
 6-311+G(2d,p)
 ****
 34  35 0
 6-311+G(2d,p)
 ****
 1  2  14  15  16  17  18  19  20  21  22  24  25  26 0
 3-21G
 ****
 31  33  36  37  38  39  40  41  42  43  44  45  46 0
 3-21G
 ****


