%nproc=1
%NoSave
%Mem=1900MB
#P OB98/GEN NMR

erre ene a

0 1
  C       92.096       8.144    -151.441
  O       91.832       9.197    -152.377
  P       91.040      10.488    -151.856
  C       92.528      11.873    -150.234
  O       92.110      11.646    -151.571
  C       92.711      13.372    -149.981
  O       92.768      13.672    -148.568
  C       93.990      13.941    -150.579
  O       93.835      14.250    -151.958
  C       94.144      15.224    -149.776
  O       93.276      16.244    -150.312
  C       93.669      14.793    -148.384
  N       97.878      16.383    -146.070
  C       96.996      17.068    -146.883
  N       97.272      18.372    -147.108
  N       95.938      16.524    -147.429
  C       95.779      15.222    -147.102
  C       96.582      14.434    -146.309
  C       97.757      15.043    -145.725
  O       98.579      14.483    -145.008
  N       96.096      13.157    -146.218
  C       94.990      13.174    -146.936
  N       94.762      14.400    -147.510
  O       90.588      10.056    -150.381
  O       89.871      10.875    -152.699
  H       93.272      16.974    -149.665
  H       89.773      10.529    -150.132
  H       98.679      16.849    -145.682
  H       94.326      12.331    -147.072
  H       93.112      15.583    -147.869
  H       95.161      15.622    -149.818
  H       98.040      18.865    -146.681
  H       94.844      13.277    -150.397
  H       96.619      18.898    -147.676
  H       91.848      13.898    -150.412
  H       93.464      11.346    -150.033
  H       91.791      11.438    -149.553
  P       94.918      13.663    -152.984
  C       94.142      11.195    -153.196
  O       94.182      12.482    -153.777
  O       95.945      12.903    -152.019
  O       95.602      14.687    -153.822
  H       96.843      12.933    -152.398
  H       93.471      10.567    -153.788
  H       93.766      11.242    -152.171
  H       95.140      10.747    -153.206
  H       92.628       7.356    -151.932
  H       91.171       7.766    -151.059
  H       92.686       8.524    -150.634

 3  4  5  6  7  8  9  10  11  12  23  26  30  31 0
 6-311+G(2d,p)
 ****
 33  35  36  37  38 0
 6-311+G(2d,p)
 ****
 1  2  13  14  15  16  17  18  19  20  21  22  24  25 0
 3-21G
 ****
 27  28  29  32  34  39  40  41  42  43  44  45  46  47  48  49 0
 3-21G
 ****


