%nproc=1
%NoSave
%Mem=1900MB
#P OB98/GEN NMR

erre ene a

0 1
  C     -126.672     -52.798    -293.624
  O     -126.464     -52.106    -292.407
  H     -127.342     -52.219    -294.264
  H     -125.711     -52.910    -294.135
  H     -127.090     -53.790    -293.442
  P     -127.676     -52.093    -291.356
  C     -128.372     -54.220    -290.039
  O     -127.362     -53.250    -290.288
  C     -127.965     -55.127    -288.880
  O     -126.765     -55.861    -289.264
  C     -127.662     -54.384    -287.569
  O     -128.160     -55.166    -286.475
  C     -126.141     -54.378    -287.517
  O     -125.636     -54.273    -286.191
  C     -125.813     -55.702    -288.196
  N     -120.931     -55.839    -286.772
  C     -122.073     -56.125    -286.106
  N     -123.339     -56.116    -286.579
  C     -123.349     -55.836    -287.896
  C     -122.273     -55.526    -288.708
  C     -121.005     -55.517    -288.084
  N     -119.847     -55.162    -288.735
  N     -122.698     -55.238    -289.991
  C     -124.011     -55.345    -289.948
  N     -124.453     -55.697    -288.703
  O     -128.887     -52.696    -292.219
  O     -128.013     -50.759    -290.779
  H     -125.755     -55.130    -285.736
  H     -129.336     -51.976    -292.698
  H     -121.957     -56.384    -285.058
  H     -124.684     -55.145    -290.768
  H     -125.912     -56.561    -287.517
  H     -125.759     -53.530    -288.101
  H     -128.083     -53.373    -287.524
  H     -128.760     -55.871    -288.725
  H     -128.510     -54.830    -290.938
  H     -119.008     -55.080    -288.180
  H     -119.904     -54.815    -289.682
  H     -129.314     -53.709    -289.813
  P     -129.731     -55.495    -286.459
  C     -131.304     -57.142    -287.716
  O     -129.981     -56.837    -287.298
  O     -130.352     -54.352    -287.393
  O     -130.334     -55.475    -285.094
  H     -131.243     -54.109    -287.085
  H     -131.303     -58.063    -288.261
  H     -131.670     -56.357    -288.344
  H     -131.936     -57.236    -286.858

 6  7  8  9  10  11  12  13  14  15  25  28  32  33  34  35 0
 6-311+G(2d,p)
 ****
 36  39  40 0
 6-311+G(2d,p)
 ****
 1  2  3  4  5  16  17  18  19  20  21  22  23  24 0
 3-21G
 ****
 26  27  29  30  31  37  38  41  42  43  44  45  46  47 0
 3-21G
 ****
 48 0
 3-21G
 ****


