%nproc=1
%NoSave
%Mem=1900MB
#P OB98/GEN NMR

erre ene a

0 1
  C     -512.363     873.712     -53.119
  O     -511.933     875.053     -52.981
  H     -513.010     873.639     -53.997
  H     -512.935     873.422     -52.235
  H     -511.510     873.037     -53.248
  P     -510.679     875.325     -52.019
  C     -512.055     876.486     -50.139
  O     -511.251     875.373     -50.514
  C     -512.074     876.642     -48.621
  O     -510.773     877.123     -48.186
  C     -513.130     877.629     -48.110
  O     -513.659     877.144     -46.862
  C     -512.315     878.880     -47.817
  O     -512.940     879.730     -46.858
  C     -511.007     878.253     -47.320
  N     -509.471     882.610     -45.360
  C     -510.523     881.787     -45.001
  N     -511.332     882.218     -44.005
  N     -510.763     880.635     -45.573
  C     -509.873     880.318     -46.543
  C     -508.795     881.046     -46.990
  C     -508.543     882.324     -46.359
  O     -507.643     883.109     -46.642
  N     -508.166     880.401     -48.033
  C     -508.876     879.305     -48.223
  N     -509.924     879.206     -47.349
  O     -510.327     876.857     -52.334
  O     -509.504     874.429     -52.230
  H     -512.283     880.374     -46.545
  H     -509.623     876.903     -53.011
  H     -509.340     883.486     -44.894
  H     -508.686     878.567     -48.995
  H     -511.083     877.882     -46.288
  H     -512.148     879.446     -48.730
  H     -511.191     883.070     -43.497
  H     -513.951     877.818     -48.807
  H     -512.085     881.602     -43.712
  H     -512.215     875.653     -48.167
  H     -513.076     876.333     -50.503
  H     -511.652     877.393     -50.616
  P     -515.138     876.530     -46.867
  C     -516.415     878.781     -46.615
  O     -516.160     877.636     -47.416
  O     -515.499     876.432     -45.313
  O     -515.235     875.186     -47.532
  H     -516.056     875.645     -45.144
  H     -517.113     879.419     -47.116
  H     -515.501     879.312     -46.451
  H     -516.824     878.475     -45.675

 6  7  8  9  10  11  12  13  14  15  26  29  33  34 0
 6-311+G(2d,p)
 ****
 36  38  39  40  41 0
 6-311+G(2d,p)
 ****
 1  2  3  4  5  16  17  18  19  20  21  22  23  24  25 0
 3-21G
 ****
 27  28  30  31  32  35  37  42  43  44  45  46  47 0
 3-21G
 ****
 48  49 0
 3-21G
 ****


