%nproc=1
%NoSave
%Mem=1900MB
#P OB98/GEN NMR

erre ene a

0 1
  C       93.011     -18.417     -41.748
  O       93.879     -17.351     -42.074
  H       93.588     -19.302     -41.464
  H       92.387     -18.118     -40.900
  H       92.363     -18.651     -42.598
  P       94.910     -17.601     -43.279
  C       93.739     -15.729     -44.654
  O       94.148     -17.087     -44.597
  C       94.279     -15.094     -45.932
  O       93.949     -15.917     -47.074
  C       93.693     -13.718     -46.231
  O       94.342     -12.684     -45.509
  C       93.972     -13.609     -47.720
  O       95.361     -13.298     -47.934
  C       93.667     -15.037     -48.197
  N       90.468     -15.144     -52.195
  C       91.808     -14.987     -52.115
  N       92.587     -14.991     -51.015
  C       91.850     -15.195     -49.910
  C       90.479     -15.378     -49.835
  C       89.771     -15.343     -51.049
  N       88.404     -15.471     -51.133
  N       90.080     -15.537     -48.522
  C       91.195     -15.467     -47.822
  N       92.288     -15.229     -48.613
  O       94.906     -19.192     -43.460
  O       96.278     -17.037     -43.096
  H       95.532     -13.399     -48.890
  H       95.661     -19.473     -44.012
  H       92.320     -14.832     -53.060
  H       91.262     -15.571     -46.746
  H       94.304     -15.348     -49.033
  H       93.388     -12.822     -48.202
  H       92.610     -13.698     -46.068
  H       95.373     -15.049     -45.860
  H       94.137     -15.198     -43.783
  H       87.977     -15.283     -52.027
  H       87.864     -15.472     -50.280
  H       92.646     -15.676     -44.641
  P       93.553     -11.295     -45.338
  C       93.653     -11.521     -42.750
  O       92.835     -11.356     -43.903
  O       92.337     -11.444     -46.366
  O       94.373     -10.076     -45.605
  H       92.088     -10.579     -46.739
  H       93.037     -11.543     -41.876
  H       94.341     -10.704     -42.681
  H       94.197     -12.439     -42.827

 6  7  8  9  10  11  12  13  14  15  25  28  32  33  34  35 0
 6-311+G(2d,p)
 ****
 36  39  40 0
 6-311+G(2d,p)
 ****
 1  2  3  4  5  16  17  18  19  20  21  22  23  24 0
 3-21G
 ****
 26  27  29  30  31  37  38  41  42  43  44  45  46  47 0
 3-21G
 ****
 48 0
 3-21G
 ****


