%nproc=1
%NoSave
%Mem=1900MB
#P OB98/GEN NMR

erre ene a

0 1
  C       52.106    -169.935     103.778
  O       52.566    -168.887     102.924
  P       52.248    -169.056     101.359
  C       49.890    -167.974     101.274
  O       51.263    -167.866     100.923
  C       49.008    -167.324     100.207
  O       47.653    -167.814     100.241
  C       48.907    -165.811     100.345
  O       50.065    -165.197      99.804
  C       47.643    -165.511      99.550
  O       47.923    -165.401      98.139
  C       46.767    -166.743      99.828
  N       42.370    -164.457     100.904
  C       43.208    -164.303      99.814
  N       42.802    -163.431      98.866
  N       44.338    -164.943      99.670
  C       44.616    -165.782     100.696
  C       43.854    -166.043     101.812
  C       42.606    -165.324     101.962
  O       41.822    -165.443     102.894
  N       44.435    -167.002     102.603
  C       45.601    -167.224     102.026
  N       45.733    -166.558     100.832
  O       51.326    -170.362     101.310
  O       53.471    -169.214     100.518
  H       47.115    -165.109      97.677
  H       51.816    -171.099     100.899
  H       41.515    -163.931     100.969
  H       46.371    -167.874     102.415
  H       46.252    -167.082      98.921
  H       47.192    -164.560      99.847
  H       41.943    -162.905      98.911
  H       48.764    -165.536     101.397
  H       43.397    -163.309      98.055
  H       49.435    -167.580      99.227
  H       49.712    -167.498     102.240
  H       49.640    -169.034     101.394
  P       50.520    -163.789     100.419
  C       52.072    -164.549     102.357
  O       51.973    -163.992     101.061
  O       49.558    -163.619     101.689
  O       50.388    -162.632      99.484
  H       49.219    -162.704     101.721
  H       53.017    -165.093     102.437
  H       51.248    -165.239     102.567
  H       52.063    -163.743     103.097
  H       52.374    -169.714     104.790
  H       52.558    -170.859     103.483
  H       51.042    -170.017     103.700

 3  4  5  6  7  8  9  10  11  12  23  26  30  31 0
 6-311+G(2d,p)
 ****
 33  35  36  37  38 0
 6-311+G(2d,p)
 ****
 1  2  13  14  15  16  17  18  19  20  21  22  24  25 0
 3-21G
 ****
 27  28  29  32  34  39  40  41  42  43  44  45  46  47  48  49 0
 3-21G
 ****


