%nproc=1
%NoSave
%Mem=1900MB
#P OB98/GEN NMR

erre ene a

0 1
  C      376.913     348.682     510.196
  O      376.873     347.626     509.255
  H      375.954     348.721     510.721
  H      377.073     349.637     509.688
  H      377.708     348.517     510.933
  P      378.210     347.252     508.456
  C      377.182     348.840     506.698
  O      378.377     348.337     507.289
  C      377.305     350.349     506.492
  O      377.533     351.011     507.757
  C      378.460     350.763     505.589
  O      378.161     350.525     504.229
  C      378.614     352.227     505.969
  O      377.647     353.037     505.279
  C      378.328     352.194     507.487
  N      379.549     352.205     508.296
  C      379.510     352.970     509.458
  O      378.535     353.644     509.792
  N      380.654     352.969     510.208
  C      381.835     352.382     509.865
  O      382.865     352.481     510.533
  C      381.827     351.602     508.618
  C      380.699     351.552     507.905
  O      378.325     345.827     508.019
  O      379.383     347.643     509.478
  H      377.645     353.905     505.727
  H      379.756     346.832     509.873
  H      380.655     353.532     511.045
  H      382.739     351.107     508.318
  H      380.672     350.987     506.977
  H      377.712     353.055     507.779
  H      379.597     352.618     505.713
  H      379.373     350.223     505.881
  H      376.348     350.720     506.088
  H      376.341     348.629     507.370
  H      377.015     348.329     505.740
  P      378.802     349.268     503.474
  C      379.606     350.754     501.536
  O      379.984     349.805     502.535
  O      377.825     348.362     502.806
  O      379.592     348.491     504.630
  H      379.222     347.589     504.729
  H      380.469     351.041     500.972
  H      379.184     351.617     502.006
  H      378.883     350.314     500.882

 6  7  8  9  10  11  12  13  14  15  16  26  31  32  33  34  35 0
 6-311+G(2d,p)
 ****
 36  37 0
 6-311+G(2d,p)
 ****
 1  2  3  4  5  17  18  19  20  21  22  23  24  25 0
 3-21G
 ****
 27  28  29  30  38  39  40  41  42  43  44  45 0
 3-21G
 ****


