%nproc=1
%NoSave
%Mem=1900MB
#P OB98/GEN NMR

erre ene a

0 1
  C       -8.616    -606.379    -164.630
  O       -7.468    -605.585    -164.857
  H       -8.724    -607.085    -165.457
  H       -9.505    -605.746    -164.592
  H       -8.522    -606.945    -163.697
  P       -6.939    -604.695    -163.631
  C       -7.257    -602.248    -162.823
  O       -7.644    -603.251    -163.754
  C       -8.298    -601.129    -162.795
  O       -8.173    -600.342    -164.009
  C       -9.751    -601.622    -162.712
  O      -10.490    -600.755    -161.849
  C      -10.255    -601.497    -164.137
  O      -11.671    -601.355    -164.206
  C       -9.478    -600.270    -164.619
  N      -10.361    -597.488    -168.734
  C      -10.496    -597.176    -167.394
  N      -10.942    -595.932    -167.112
  N      -10.225    -598.005    -166.424
  C       -9.751    -599.203    -166.858
  C       -9.577    -599.641    -168.155
  C       -9.908    -598.717    -169.219
  O       -9.831    -598.944    -170.418
  N       -9.106    -600.930    -168.176
  C       -9.004    -601.274    -166.906
  N       -9.374    -600.248    -166.066
  O       -5.413    -604.407    -164.020
  O       -7.049    -605.333    -162.283
  H      -11.900    -600.508    -163.767
  H       -4.822    -604.825    -163.368
  H      -10.594    -596.820    -169.448
  H       -8.670    -602.240    -166.543
  H       -9.954    -599.335    -164.313
  H       -9.974    -602.386    -164.711
  H      -11.130    -595.224    -167.806
  H       -9.828    -602.645    -162.337
  H      -11.022    -595.660    -166.132
  H       -8.064    -600.463    -161.957
  H       -6.285    -601.838    -163.127
  H       -7.160    -602.697    -161.829
  P      -11.088    -601.389    -160.504
  C      -13.183    -602.752    -159.814
  O      -12.544    -601.995    -160.828
  O      -11.412    -600.102    -159.604
  O      -10.150    -602.315    -159.802
  H      -10.768    -600.037    -158.872
  H      -14.135    -603.089    -160.167
  H      -13.320    -602.142    -158.946
  H      -12.576    -603.597    -159.564

 6  7  8  9  10  11  12  13  14  15  26  29  33  34 0
 6-311+G(2d,p)
 ****
 36  38  39  40  41 0
 6-311+G(2d,p)
 ****
 1  2  3  4  5  16  17  18  19  20  21  22  23  24  25 0
 3-21G
 ****
 27  28  30  31  32  35  37  42  43  44  45  46  47 0
 3-21G
 ****
 48  49 0
 3-21G
 ****


