%nproc=1
%NoSave
%Mem=1900MB
#P OB98/GEN NMR

erre ene a

0 1
  C       20.894     -34.642      22.883
  O       21.161     -35.761      22.061
  H       21.182     -33.735      22.344
  H       21.476     -34.697      23.808
  H       19.828     -34.587      23.117
  P       20.900     -37.225      22.654
  C       23.386     -37.528      23.307
  O       22.036     -37.474      23.757
  C       24.347     -37.548      24.493
  O       24.202     -36.346      25.276
  C       24.120     -38.704      25.461
  O       24.609     -39.913      24.917
  C       24.859     -38.191      26.686
  O       26.277     -38.367      26.544
  C       24.490     -36.687      26.653
  N       23.364     -36.344      27.518
  C       23.683     -35.681      28.709
  O       24.856     -35.432      28.986
  N       22.660     -35.338      29.560
  C       21.431     -35.590      29.234
  N       20.467     -35.220      30.118
  C       21.052     -36.257      27.974
  C       22.057     -36.612      27.176
  O       20.759     -38.329      21.652
  O       19.573     -37.054      23.534
  H       26.534     -37.864      25.746
  H       18.783     -37.286      23.010
  H       20.013     -36.438      27.738
  H       21.864     -37.107      26.230
  H       25.350     -36.075      26.957
  H       24.561     -38.711      27.597
  H       23.055     -38.787      25.709
  H       25.372     -37.561      24.097
  H       20.775     -34.748      30.962
  H       23.558     -36.634      22.697
  H       19.480     -35.218      29.902
  H       23.548     -38.410      22.676
  P       23.934     -41.326      25.266
  C       25.950     -41.729      26.811
  O       24.536     -41.756      26.692
  O       24.043     -42.361      24.200
  O       22.424     -40.941      25.631
  H       21.904     -40.763      24.807
  H       26.231     -42.033      27.798
  H       26.304     -40.736      26.629
  H       26.381     -42.398      26.096

 6  7  8  9  10  11  12  13  14  15  16  26  30  31  32  33  35 0
 6-311+G(2d,p)
 ****
 37  38 0
 6-311+G(2d,p)
 ****
 1  2  3  4  5  17  18  19  20  21  22  23  24  25 0
 3-21G
 ****
 27  28  29  34  36  39  40  41  42  43  44  45  46 0
 3-21G
 ****


