%nproc=1
%NoSave
%Mem=1900MB
#P OB98/GEN NMR

erre ene a

0 1
  C     -111.109     499.474    -103.592
  O     -112.436     499.695    -103.143
  H     -110.404     499.657    -102.778
  H     -111.020     498.433    -103.912
  H     -110.883     500.127    -104.438
  P     -112.787     501.182    -102.652
  C     -112.666     502.360    -100.341
  O     -112.173     501.322    -101.175
  C     -112.109     502.211     -98.926
  O     -112.576     500.982     -98.339
  C     -110.589     502.159     -98.849
  O     -110.007     503.451     -98.922
  C     -110.401     501.545     -97.462
  O     -110.582     502.556     -96.454
  C     -111.554     500.534     -97.405
  N     -108.671     496.517     -96.057
  C     -108.915     497.703     -95.448
  N     -109.716     498.710     -95.857
  C     -110.302     498.400     -97.027
  C     -110.174     497.230     -97.754
  C     -109.302     496.256     -97.227
  N     -109.013     495.083     -97.900
  N     -110.935     497.290     -98.911
  C     -111.495     498.480     -98.884
  N     -111.153     499.182     -97.764
  O     -114.368     501.112    -102.405
  O     -112.424     502.273    -103.608
  H     -109.824     503.165     -96.528
  H     -114.831     501.464    -103.190
  H     -108.402     497.857     -94.506
  H     -112.147     498.871     -99.656
  H     -112.016     500.488     -96.414
  H     -109.404     501.110     -97.318
  H     -110.172     501.482     -99.603
  H     -112.506     503.042     -98.323
  H     -113.761     502.310    -100.304
  H     -108.084     494.719     -97.691
  H     -109.299     495.067     -98.868
  H     -112.370     503.324    -100.767
  P     -108.614     503.606     -99.701
  C     -106.122     503.738     -99.019
  O     -107.466     503.624     -98.574
  O     -108.655     505.118    -100.220
  O     -108.404     502.647    -100.823
  H     -108.532     505.134    -101.195
  H     -105.465     503.738     -98.174
  H     -106.003     504.652     -99.563
  H     -105.885     502.911     -99.655

 6  7  8  9  10  11  12  13  14  15  25  28  32  33  34  35 0
 6-311+G(2d,p)
 ****
 36  39  40 0
 6-311+G(2d,p)
 ****
 1  2  3  4  5  16  17  18  19  20  21  22  23  24 0
 3-21G
 ****
 26  27  29  30  31  37  38  41  42  43  44  45  46  47  48 0
 3-21G
 ****


