%nproc=1
%NoSave
%Mem=1900MB
#P OB98/GEN NMR

erre ene a

0 1
  C     -547.006     351.020    -556.868
  O     -546.777     350.727    -555.501
  H     -546.399     351.882    -557.146
  H     -548.057     351.265    -557.032
  H     -546.718     350.174    -557.498
  P     -547.565     349.492    -554.849
  C     -549.392     349.936    -553.062
  O     -549.011     350.065    -554.437
  C     -549.001     351.201    -552.294
  O     -549.445     352.378    -553.008
  C     -549.611     351.285    -550.894
  O     -548.851     350.509    -549.975
  C     -549.514     352.781    -550.641
  O     -548.155     353.130    -550.302
  C     -549.884     353.356    -552.036
  N     -553.558     356.856    -552.127
  C     -552.215     356.987    -551.804
  N     -551.805     358.215    -551.449
  N     -551.359     355.999    -551.861
  C     -551.925     354.814    -552.170
  C     -553.249     354.548    -552.481
  C     -554.170     355.674    -552.480
  O     -555.367     355.597    -552.762
  N     -553.475     353.210    -552.682
  C     -552.264     352.671    -552.555
  N     -551.306     353.597    -552.209
  O     -546.860     348.760    -553.750
  O     -547.893     348.542    -556.100
  H     -547.575     352.659    -550.923
  H     -547.209     347.861    -556.217
  H     -554.175     357.659    -552.057
  H     -552.052     351.600    -552.668
  H     -549.354     354.299    -552.247
  H     -550.148     353.109    -549.823
  H     -552.441     358.933    -551.141
  H     -550.671     350.998    -550.903
  H     -550.822     358.327    -551.179
  H     -547.900     351.257    -552.249
  H     -548.861     349.059    -552.656
  H     -550.474     349.761    -552.979
  P     -549.407     350.193    -548.490
  C     -547.935     351.411    -546.725
  O     -549.033     351.505    -547.647
  O     -548.927     348.905    -547.902
  O     -551.006     350.309    -548.634
  H     -551.420     349.449    -548.876
  H     -547.799     352.353    -546.235
  H     -547.043     351.153    -547.257
  H     -548.145     350.657    -545.996

 6  7  8  9  10  11  12  13  14  15  26  29  33  34 0
 6-311+G(2d,p)
 ****
 36  38  39  40  41 0
 6-311+G(2d,p)
 ****
 1  2  3  4  5  16  17  18  19  20  21  22  23  24  25 0
 3-21G
 ****
 27  28  30  31  32  35  37  42  43  44  45  46  47 0
 3-21G
 ****
 48  49 0
 3-21G
 ****


