%nproc=1
%NoSave
%Mem=1900MB
#P OB98/GEN NMR

erre ene a

0 1
  C        7.065     443.810     498.327
  O        6.836     445.200     498.518
  P        7.595     446.220     497.536
  C        6.000     445.695     495.507
  O        7.311     445.688     496.049
  C        6.003     446.369     494.131
  O        6.092     447.802     494.287
  C        7.174     445.980     493.240
  O        6.997     444.697     492.658
  C        7.179     447.137     492.240
  O        6.178     446.929     491.231
  C        6.792     448.330     493.136
  N        7.936     449.147     493.539
  C        7.746     450.526     493.515
  O        6.689     451.053     493.182
  N        8.834     451.281     493.874
  C       10.075     450.805     494.185
  O       11.025     451.531     494.456
  C       10.224     449.343     494.158
  C        9.165     448.591     493.842
  O        9.119     445.831     497.824
  O        7.245     447.648     497.792
  H        9.206     444.906     498.119
  H        6.494     446.188     490.679
  H        8.713     452.282     493.888
  H       11.196     448.929     494.393
  H        9.257     447.516     493.812
  H        6.073     448.976     492.618
  H        8.141     447.250     491.730
  H        8.107     445.995     493.820
  H        5.050     446.145     493.634
  H        5.334     446.246     496.182
  H        5.641     444.663     495.426
  P        8.318     443.971     492.107
  C        9.084     443.467     494.557
  O        9.390     444.023     493.295
  O        8.850     445.048     491.048
  O        8.060     442.613     491.534
  H        8.785     445.960     491.376
  H       10.015     443.278     495.092
  H        8.536     442.526     494.457
  H        8.483     444.179     495.132
  H        6.500     443.253     499.045
  H        8.107     443.600     498.452
  H        6.761     443.531     497.340

 3  4  5  6  7  8  9  10  11  12  13  24  28  29  30  31  32 0
 6-311+G(2d,p)
 ****
 33  34 0
 6-311+G(2d,p)
 ****
 1  2  14  15  16  17  18  19  20  21  22  23  25  26  27 0
 3-21G
 ****
 35  36  37  38  39  40  41  42  43  44  45 0
 3-21G
 ****


