%nproc=1
%NoSave
%Mem=1900MB
#P OB98/GEN NMR

erre ene a

0 1
  C     -200.769     312.945     -99.883
  O     -199.472     313.508     -99.779
  P     -198.333     313.196    -100.868
  C     -198.716     315.564    -101.833
  O     -198.643     314.175    -102.099
  C     -198.263     316.365    -103.054
  O     -198.451     317.778    -102.781
  C     -196.792     316.159    -103.437
  O     -196.709     316.230    -104.864
  C     -196.107     317.353    -102.802
  O     -194.858     317.653    -103.407
  C     -197.181     318.430    -102.983
  N     -197.012     319.549    -102.062
  C     -196.693     320.794    -102.604
  O     -196.534     320.935    -103.817
  N     -196.556     321.865    -101.755
  C     -196.644     321.691    -100.474
  N     -196.562     322.791     -99.680
  C     -196.874     320.371     -99.856
  C     -197.069     319.364    -100.698
  O     -198.194     311.758    -101.234
  O     -197.011     313.845    -100.252
  H     -194.456     318.401    -102.925
  H     -196.542     313.243     -99.622
  H     -196.914     320.272     -98.779
  H     -197.269     318.366    -100.336
  H     -197.178     318.798    -104.016
  H     -195.926     317.150    -101.742
  H     -196.398     315.195    -103.101
  H     -198.917     316.108    -103.899
  H     -196.579     323.693    -100.147
  H     -198.049     315.793    -100.997
  H     -196.938     322.787     -98.739
  H     -199.739     315.832    -101.543
  P     -195.525     315.430    -105.600
  C     -196.809     313.178    -105.561
  O     -195.643     313.885    -105.198
  O     -194.245     315.898    -104.748
  O     -195.313     315.740    -107.045
  H     -193.447     315.824    -105.307
  H     -196.715     312.145    -105.215
  H     -196.930     313.170    -106.648
  H     -197.691     313.624    -105.092
  H     -201.369     313.278     -99.062
  H     -200.697     311.878     -99.862
  H     -201.219     313.254    -100.803

 3  4  5  6  7  8  9  10  11  12  13  23  27  28  29  30  32 0
 6-311+G(2d,p)
 ****
 34  35 0
 6-311+G(2d,p)
 ****
 1  2  14  15  16  17  18  19  20  21  22  24  25  26 0
 3-21G
 ****
 31  33  36  37  38  39  40  41  42  43  44  45  46 0
 3-21G
 ****


