%nproc=1
%NoSave
%Mem=1900MB
#P OB98/GEN NMR

erre ene a

0 1
  C     -121.050      -1.237     -47.903
  O     -121.619      -2.519     -47.703
  P     -122.161      -2.881     -46.235
  C     -119.995      -4.276     -45.852
  O     -120.881      -3.285     -45.356
  C     -118.870      -4.540     -44.847
  O     -118.069      -3.337     -44.725
  C     -119.342      -4.916     -43.439
  O     -118.362      -5.811     -42.895
  C     -119.290      -3.594     -42.696
  O     -119.216      -3.759     -41.283
  C     -118.057      -2.961     -43.330
  N     -118.251       0.912     -40.081
  C     -118.375      -0.446     -39.848
  N     -118.510      -0.822     -38.558
  N     -118.364      -1.350     -40.792
  C     -118.205      -0.825     -42.030
  C     -118.111       0.498     -42.391
  C     -118.086       1.485     -41.336
  O     -117.891       2.689     -41.489
  N     -118.050       0.645     -43.752
  C     -118.026      -0.592     -44.207
  N     -118.069      -1.518     -43.199
  O     -122.916      -4.271     -46.467
  O     -123.038      -1.850     -45.596
  H     -119.223      -2.868     -40.877
  H     -123.869      -4.131     -46.628
  H     -118.247       1.560     -39.312
  H     -117.970      -0.875     -45.245
  H     -117.121      -3.326     -42.885
  H     -120.192      -3.010     -42.918
  H     -118.495      -0.182     -37.779
  H     -120.334      -5.377     -43.417
  H     -118.570      -1.813     -38.357
  H     -118.220      -5.323     -45.257
  H     -119.550      -3.918     -46.787
  H     -120.551      -5.194     -46.063
  P     -118.881      -7.037     -42.002
  C     -118.205      -5.903     -39.773
  O     -119.244      -6.461     -40.554
  O     -117.542      -7.877     -41.738
  O     -119.923      -7.889     -42.651
  H     -117.757      -8.826     -41.670
  H     -118.644      -5.223     -39.039
  H     -117.492      -5.347     -40.389
  H     -117.680      -6.703     -39.243
  H     -120.736      -1.141     -48.921
  H     -120.206      -1.117     -47.257
  H     -121.778      -0.485     -47.682

 3  4  5  6  7  8  9  10  11  12  23  26  30  31 0
 6-311+G(2d,p)
 ****
 33  35  36  37  38 0
 6-311+G(2d,p)
 ****
 1  2  13  14  15  16  17  18  19  20  21  22  24  25 0
 3-21G
 ****
 27  28  29  32  34  39  40  41  42  43  44  45  46  47  48  49 0
 3-21G
 ****


