%nproc=1
%NoSave
%Mem=1900MB
#P OB98/GEN NMR

erre ene a

0 1
  C        2.424    -702.518    -899.130
  O        1.584    -703.381    -898.350
  P        2.179    -703.990    -896.990
  C       -0.131    -704.408    -895.860
  O        1.121    -703.718    -895.830
  C       -0.871    -704.246    -894.530
  O       -0.121    -704.821    -893.430
  C       -1.150    -702.793    -894.150
  O       -2.301    -702.283    -894.780
  C       -1.390    -702.922    -892.650
  O       -2.740    -703.377    -892.420
  C       -0.379    -704.006    -892.260
  N        2.082    -702.436    -888.110
  C        0.799    -702.956    -888.250
  N        0.077    -703.060    -887.120
  N        0.281    -703.311    -889.390
  C        1.124    -703.164    -890.440
  C        2.411    -702.661    -890.430
  C        2.959    -702.251    -889.160
  O        4.090    -701.761    -888.970
  N        2.947    -702.651    -891.690
  C        2.009    -703.149    -892.460
  N        0.874    -703.457    -891.760
  O        3.368    -702.963    -896.640
  O        2.671    -705.389    -897.120
  H       -2.877    -703.349    -891.460
  H        4.051    -703.428    -896.120
  H        2.423    -702.154    -887.220
  H        2.102    -703.312    -893.530
  H       -0.778    -704.682    -891.480
  H       -1.280    -701.963    -892.140
  H        0.428    -702.854    -886.180
  H       -0.240    -702.168    -894.330
  H       -0.850    -703.462    -887.200
  H       -1.833    -704.778    -894.630
  H        0.030    -705.471    -896.070
  H       -0.719    -704.032    -896.690
  P       -2.108    -701.398    -896.110
  C       -3.099    -703.383    -897.480
  O       -2.058    -702.428    -897.340
  O       -0.595    -700.878    -895.980
  O       -3.077    -700.260    -896.250
  H       -0.504    -699.989    -896.390
  H       -2.984    -703.877    -898.440
  H       -4.087    -702.884    -897.440
  H       -3.029    -704.125    -896.670
  H        1.892    -702.194    -900.000
  H        3.304    -703.050    -899.427
  H        2.702    -701.667    -898.544

 3  4  5  6  7  8  9  10  11  12  23  26  30  31 0
 6-311+G(2d,p)
 ****
 33  35  36  37  38 0
 6-311+G(2d,p)
 ****
 1  2  13  14  15  16  17  18  19  20  21  22  24  25 0
 3-21G
 ****
 27  28  29  32  34  39  40  41  42  43  44  45  46  47  48  49 0
 3-21G
 ****


