%nproc=1
%NoSave
%Mem=1900MB
#P OB98/GEN NMR

erre ene a

0 1
  C     -270.850     -41.164      15.149
  O     -270.419     -42.253      15.940
  H     -271.119     -40.319      15.788
  H     -270.032     -40.860      14.492
  H     -271.706     -41.456      14.536
  P     -271.483     -42.864      16.976
  C     -270.184     -42.266      19.147
  O     -271.315     -42.009      18.325
  C     -270.638     -42.499      20.584
  O     -271.444     -41.389      21.038
  C     -271.501     -43.741      20.777
  O     -270.725     -44.923      20.871
  C     -272.168     -43.413      22.102
  O     -271.241     -43.638      23.182
  C     -272.450     -41.913      21.947
  N     -277.427     -41.528      23.072
  C     -276.356     -41.856      23.826
  N     -275.064     -41.940      23.448
  C     -274.925     -41.642      22.147
  C     -275.925     -41.298      21.253
  C     -277.235     -41.236      21.765
  N     -278.331     -40.915      20.998
  N     -275.404     -41.096      19.989
  C     -274.107     -41.285      20.130
  N     -273.770     -41.626      21.413
  O     -270.857     -44.284      17.367
  O     -272.885     -42.974      16.477
  H     -271.735     -43.485      24.010
  H     -271.550     -44.869      17.724
  H     -276.565     -42.084      24.867
  H     -273.377     -41.185      19.339
  H     -272.356     -41.368      22.893
  H     -273.047     -44.027      22.302
  H     -272.270     -43.823      19.999
  H     -269.745     -42.543      21.221
  H     -269.513     -41.403      19.114
  H     -279.236     -41.081      21.412
  H     -278.215     -40.846      19.997
  H     -269.656     -43.145      18.768
  P     -271.413     -46.293      20.397
  C     -272.401     -46.847      22.741
  O     -272.662     -46.517      21.380
  O     -270.363     -47.406      20.867
  O     -271.712     -46.373      18.937
  H     -270.436     -48.207      20.309
  H     -273.327     -46.963      23.264
  H     -271.831     -46.063      23.195
  H     -271.848     -47.762      22.786

 6  7  8  9  10  11  12  13  14  15  25  28  32  33  34  35 0
 6-311+G(2d,p)
 ****
 36  39  40 0
 6-311+G(2d,p)
 ****
 1  2  3  4  5  16  17  18  19  20  21  22  23  24 0
 3-21G
 ****
 26  27  29  30  31  37  38  41  42  43  44  45  46  47 0
 3-21G
 ****
 48 0
 3-21G
 ****


