%nproc=1
%NoSave
%Mem=1900MB
#P OB98/GEN NMR

erre ene a

0 1
  C     -388.350     450.109    -181.558
  O     -388.780     450.753    -182.736
  H     -389.225     449.724    -181.027
  H     -387.832     450.821    -180.908
  H     -387.688     449.270    -181.796
  P     -387.650     451.261    -183.757
  C     -388.263     453.780    -183.571
  O     -387.293     452.768    -183.336
  C     -387.694     455.156    -183.239
  O     -387.049     455.095    -181.944
  C     -386.654     455.654    -184.258
  O     -386.829     457.066    -184.436
  C     -385.322     455.393    -183.572
  O     -384.283     456.257    -184.038
  C     -385.697     455.582    -182.091
  N     -384.766     454.873    -181.213
  C     -384.966     455.026    -179.837
  O     -385.888     455.735    -179.414
  N     -384.094     454.416    -178.973
  C     -383.061     453.797    -179.440
  N     -382.216     453.242    -178.523
  C     -382.769     453.667    -180.881
  C     -383.661     454.220    -181.704
  O     -388.450     451.442    -185.133
  O     -386.470     450.360    -183.903
  H     -383.990     455.939    -184.918
  H     -387.878     451.264    -185.900
  H     -381.875     453.159    -181.216
  H     -383.528     454.180    -182.777
  H     -385.692     456.647    -181.826
  H     -385.013     454.356    -183.753
  H     -386.723     455.150    -185.224
  H     -388.523     455.866    -183.158
  H     -382.437     453.356    -177.540
  H     -389.130     453.588    -182.937
  H     -381.351     452.766    -178.771
  H     -388.582     453.739    -184.617
  P     -387.415     457.543    -185.856
  C     -385.317     457.319    -187.383
  O     -386.586     456.793    -187.012
  O     -386.923     459.064    -185.957
  O     -388.897     457.429    -185.963
  H     -387.685     459.667    -185.853
  H     -384.893     456.715    -188.158
  H     -384.667     457.316    -186.533
  H     -385.436     458.322    -187.737

 6  7  8  9  10  11  12  13  14  15  16  26  30  31  32  33  35 0
 6-311+G(2d,p)
 ****
 37  38 0
 6-311+G(2d,p)
 ****
 1  2  3  4  5  17  18  19  20  21  22  23  24  25 0
 3-21G
 ****
 27  28  29  34  36  39  40  41  42  43  44  45  46 0
 3-21G
 ****


