%nproc=1
%NoSave
%Mem=1900MB
#P OB98/GEN NMR

erre ene a

0 1
  C     -183.087       4.944    -159.215
  O     -182.852       3.676    -159.791
  H     -184.056       4.920    -158.704
  H     -183.120       5.720    -159.985
  H     -182.314       5.180    -158.480
  P     -181.527       3.474    -160.670
  C     -180.053       2.453    -158.801
  O     -180.291       3.572    -159.654
  C     -178.755       2.638    -158.023
  O     -178.659       1.660    -156.967
  C     -177.495       2.465    -158.866
  O     -177.280       3.599    -159.682
  C     -176.459       2.244    -157.773
  O     -176.084       3.485    -157.158
  C     -177.255       1.363    -156.779
  N     -177.003      -0.070    -156.938
  C     -176.000      -0.613    -156.130
  O     -175.375       0.108    -155.347
  N     -175.722      -1.952    -156.241
  C     -176.408      -2.692    -157.050
  N     -176.088      -4.012    -157.112
  C     -177.499      -2.167    -157.898
  C     -177.733      -0.859    -157.801
  O     -181.399       4.342    -161.883
  O     -181.556       1.919    -161.057
  H     -176.917       3.927    -156.904
  H     -181.975       1.790    -161.929
  H     -178.055      -2.825    -158.550
  H     -178.518      -0.393    -158.386
  H     -177.011       1.638    -155.744
  H     -175.546       1.786    -158.153
  H     -177.561       1.553    -159.467
  H     -178.780       3.630    -157.551
  H     -175.345      -4.333    -156.497
  H     -179.985       1.568    -159.445
  H     -176.652      -4.705    -157.577
  H     -180.890       2.314    -158.110
  P     -176.020       3.700    -160.670
  C     -177.459       2.436    -162.387
  O     -176.202       2.504    -161.728
  O     -174.689       3.748    -159.996
  O     -176.335       4.994    -161.553
  H     -176.145       5.818    -161.038
  H     -177.463       1.606    -163.062
  H     -177.625       3.341    -162.933
  H     -178.236       2.310    -161.662

 6  7  8  9  10  11  12  13  14  15  16  26  30  31  32  33  35 0
 6-311+G(2d,p)
 ****
 37  38 0
 6-311+G(2d,p)
 ****
 1  2  3  4  5  17  18  19  20  21  22  23  24  25 0
 3-21G
 ****
 27  28  29  34  36  39  40  41  42  43  44  45  46 0
 3-21G
 ****


