%nproc=1
%NoSave
%Mem=1900MB
#P OB98/GEN NMR

erre ene a

0 1
  C      238.187    -501.582      46.349
  O      239.205    -501.535      47.326
  H      238.591    -501.211      45.404
  H      237.339    -500.951      46.637
  H      237.851    -502.613      46.206
  P      238.791    -501.782      48.861
  C      238.385    -499.249      49.173
  O      239.107    -500.397      49.618
  C      238.844    -497.990      49.915
  O      238.512    -498.097      51.319
  C      240.349    -497.773      49.880
  O      240.847    -497.420      48.607
  C      240.573    -496.838      51.063
  O      240.390    -495.462      50.735
  C      239.468    -497.293      52.045
  N      240.013    -498.005      53.194
  C      240.582    -497.210      54.185
  O      240.647    -495.984      54.121
  N      241.108    -497.882      55.253
  C      241.172    -499.234      55.396
  O      241.700    -499.774      56.361
  C      240.585    -500.026      54.304
  C      240.040    -499.385      53.265
  O      239.404    -502.982      49.517
  O      237.192    -501.818      48.822
  H      240.923    -495.288      49.932
  H      236.826    -502.223      49.643
  H      241.511    -497.322      55.992
  H      240.620    -501.104      54.379
  H      239.601    -499.942      52.442
  H      238.916    -496.422      52.426
  H      241.580    -496.938      51.467
  H      240.836    -498.718      50.147
  H      238.307    -497.130      49.505
  H      237.325    -499.424      49.380
  H      238.519    -499.125      48.094
  P      241.946    -498.283      47.831
  C      243.832    -496.566      48.334
  O      243.113    -497.286      47.342
  O      241.436    -499.315      46.874
  O      242.656    -499.065      49.047
  H      242.914    -499.947      48.718
  H      244.569    -495.950      47.863
  H      244.313    -497.255      48.996
  H      243.155    -495.951      48.890

 6  7  8  9  10  11  12  13  14  15  16  26  31  32  33  34  35 0
 6-311+G(2d,p)
 ****
 36  37 0
 6-311+G(2d,p)
 ****
 1  2  3  4  5  17  18  19  20  21  22  23  24  25 0
 3-21G
 ****
 27  28  29  30  38  39  40  41  42  43  44  45 0
 3-21G
 ****


