%nproc=1
%NoSave
%Mem=1900MB
#P OB98/GEN NMR

erre ene a

0 1
  C       56.277    -198.844      -2.708
  O       56.893    -199.267      -1.488
  P       58.379    -199.864      -1.618
  C       59.912    -197.850      -2.168
  O       59.411    -198.719      -1.165
  C       60.687    -196.677      -1.558
  O       59.831    -195.505      -1.406
  C       61.279    -196.979      -0.176
  O       62.521    -196.270      -0.087
  C       60.276    -196.341       0.766
  O       60.835    -196.128       2.061
  C       59.941    -195.079      -0.028
  N       57.977    -191.932       3.396
  C       59.246    -192.466       3.304
  N       60.139    -192.065       4.235
  N       59.607    -193.320       2.382
  C       58.623    -193.599       1.495
  C       57.332    -193.122       1.469
  C       56.933    -192.204       2.515
  O       55.826    -191.697       2.639
  N       56.633    -193.615       0.390
  C       57.492    -194.440      -0.187
  N       58.724    -194.424       0.408
  O       58.591    -199.968      -3.199
  O       58.554    -201.184      -0.944
  H       60.221    -195.540       2.553
  H       58.458    -200.887      -3.497
  H       57.745    -191.291       4.137
  H       57.279    -195.050      -1.050
  H       60.736    -194.324       0.035
  H       59.393    -196.982       0.871
  H       59.940    -191.373       4.943
  H       61.435    -198.042       0.027
  H       61.088    -192.410       4.167
  H       61.493    -196.402      -2.251
  H       59.087    -197.456      -2.768
  H       60.541    -198.423      -2.857
  P       63.700    -196.693      -1.087
  C       63.301    -196.367      -3.624
  O       63.590    -195.757      -2.382
  O       63.220    -198.127      -1.621
  O       65.052    -196.781      -0.456
  H       63.994    -198.718      -1.704
  H       62.808    -195.634      -4.270
  H       62.642    -197.232      -3.507
  H       64.232    -196.687      -4.098
  H       55.297    -198.467      -2.501
  H       56.205    -199.675      -3.378
  H       56.868    -198.073      -3.157

 3  4  5  6  7  8  9  10  11  12  23  26  30  31 0
 6-311+G(2d,p)
 ****
 33  35  36  37  38 0
 6-311+G(2d,p)
 ****
 1  2  13  14  15  16  17  18  19  20  21  22  24  25 0
 3-21G
 ****
 27  28  29  32  34  39  40  41  42  43  44  45  46  47  48  49 0
 3-21G
 ****


