%nproc=1
%NoSave
%Mem=1900MB
#P OB98/GEN NMR

erre ene a

0 1
  C     -691.499     560.989     221.441
  O     -692.042     559.744     221.063
  P     -692.727     559.482     219.639
  C     -695.180     560.221     220.110
  O     -693.948     560.519     219.458
  C     -696.417     560.543     219.240
  O     -696.528     561.970     219.082
  C     -696.233     559.966     217.841
  O     -696.542     558.612     217.591
  C     -696.907     560.973     216.914
  O     -698.230     560.581     216.536
  C     -696.930     562.256     217.736
  N     -695.391     564.734     213.585
  C     -696.486     563.903     213.743
  N     -697.132     563.557     212.619
  N     -696.886     563.453     214.912
  C     -696.086     563.822     215.940
  C     -694.976     564.645     215.910
  C     -694.567     565.178     214.624
  O     -693.558     565.850     214.424
  N     -694.374     564.729     217.126
  C     -695.074     563.924     217.898
  N     -696.091     563.325     217.217
  O     -692.946     558.047     219.247
  O     -691.613     560.095     218.639
  H     -698.716     560.314     217.338
  H     -691.628     559.555     217.830
  H     -695.068     564.986     212.657
  H     -694.867     563.725     218.955
  H     -697.960     562.647     217.803
  H     -696.341     561.066     215.980
  H     -696.762     563.756     211.695
  H     -695.156     560.033     217.598
  H     -697.827     562.814     212.680
  H     -697.339     560.237     219.740
  H     -695.201     560.795     221.047
  H     -695.202     559.166     220.381
  P     -695.921     557.692     216.431
  C     -698.009     557.776     214.949
  O     -696.626     558.072     215.042
  O     -696.501     556.221     216.735
  O     -694.426     557.678     216.398
  H     -695.912     555.546     216.335
  H     -698.303     557.781     213.909
  H     -698.574     558.554     215.492
  H     -698.226     556.803     215.392
  H     -691.100     560.918     222.431
  H     -692.266     561.735     221.418
  H     -690.718     561.259     220.761

 3  4  5  6  7  8  9  10  11  12  23  26  30  31 0
 6-311+G(2d,p)
 ****
 33  35  36  37  38 0
 6-311+G(2d,p)
 ****
 1  2  13  14  15  16  17  18  19  20  21  22  24  25 0
 3-21G
 ****
 27  28  29  32  34  39  40  41  42  43  44  45  46  47  48  49 0
 3-21G
 ****


