%nproc=1
%NoSave
%Mem=1900MB
#P OB98/GEN NMR

erre ene a

0 1
  C       70.595    -181.063     -17.534
  O       70.406    -182.236     -18.335
  P       69.136    -183.161     -18.025
  C       66.663    -182.386     -17.806
  O       67.833    -182.429     -18.607
  C       65.452    -181.984     -18.653
  O       65.610    -180.661     -19.216
  C       65.199    -182.910     -19.834
  O       64.473    -184.069     -19.448
  C       64.331    -182.027     -20.718
  O       62.972    -182.040     -20.239
  C       64.960    -180.645     -20.512
  N       65.696    -180.153     -25.492
  C       64.561    -180.507     -24.791
  N       63.455    -180.763     -25.525
  N       64.512    -180.604     -23.488
  C       65.685    -180.304     -22.886
  C       66.877    -179.941     -23.469
  C       66.922    -179.852     -24.912
  O       67.903    -179.556     -25.587
  N       67.848    -179.723     -22.528
  C       67.243    -179.933     -21.375
  N       65.932    -180.305     -21.539
  O       68.954    -182.999     -16.442
  O       69.307    -184.591     -18.417
  H       62.465    -181.443     -20.822
  H       68.535    -183.797     -16.073
  H       65.680    -180.098     -26.496
  H       67.706    -179.829     -20.402
  H       64.213    -179.844     -20.497
  H       64.305    -182.375     -21.754
  H       63.409    -180.657     -26.527
  H       66.134    -183.161     -20.351
  H       62.605    -180.992     -25.028
  H       64.568    -181.980     -18.003
  H       66.790    -181.677     -16.982
  H       66.517    -183.362     -17.336
  P       65.109    -185.501     -19.789
  C       67.227    -186.498     -18.667
  O       65.943    -185.933     -18.494
  O       66.232    -185.141     -20.872
  O       64.140    -186.506     -20.310
  H       66.342    -185.881     -21.497
  H       67.708    -186.579     -17.689
  H       67.846    -185.868     -19.312
  H       67.141    -187.499     -19.100
  H       71.477    -180.550     -17.855
  H       70.701    -181.345     -16.507
  H       69.748    -180.418     -17.641

 3  4  5  6  7  8  9  10  11  12  23  26  30  31 0
 6-311+G(2d,p)
 ****
 33  35  36  37  38 0
 6-311+G(2d,p)
 ****
 1  2  13  14  15  16  17  18  19  20  21  22  24  25 0
 3-21G
 ****
 27  28  29  32  34  39  40  41  42  43  44  45  46  47  48  49 0
 3-21G
 ****


