%nproc=1
%NoSave
%Mem=1900MB
#P OB98/GEN NMR

erre ene a

0 1
  C      266.769     573.259     286.779
  O      265.428     573.596     287.065
  H      266.974     572.265     287.187
  H      267.453     573.977     287.239
  H      266.930     573.234     285.694
  P      264.932     575.044     286.576
  C      264.593     574.910     284.024
  O      263.998     574.736     285.309
  C      263.549     575.403     283.018
  O      264.229     575.740     281.780
  C      262.483     574.367     282.688
  O      261.215     575.023     282.537
  C      262.926     573.793     281.351
  O      261.843     573.263     280.600
  C      263.604     575.017     280.715
  N      264.310     572.289     276.457
  C      263.198     572.607     277.146
  N      263.101     573.353     278.274
  C      264.303     573.824     278.636
  C      265.524     573.581     278.037
  C      265.508     572.756     276.891
  N      266.633     572.402     276.196
  N      266.543     574.205     278.733
  C      265.943     574.827     279.731
  N      264.590     574.611     279.718
  O      266.009     576.054     286.351
  O      263.866     575.421     287.708
  H      262.170     573.042     279.698
  H      263.286     574.665     287.924
  H      262.268     572.207     276.759
  H      266.441     575.425     280.485
  H      262.887     575.673     280.212
  H      263.656     572.994     281.517
  H      262.397     573.586     283.453
  H      263.112     576.337     283.395
  H      265.019     573.964     283.675
  H      266.535     571.827     275.378
  H      267.537     572.767     276.489
  H      265.405     575.641     284.127
  P      259.885     574.184     282.815
  C      259.876     574.386     285.394
  O      259.217     574.719     284.178
  O      260.006     572.699     282.712
  O      258.876     574.754     281.709
  H      258.322     574.017     281.371
  H      259.333     574.799     286.218
  H      260.868     574.787     285.383
  H      259.922     573.322     285.495

 6  7  8  9  10  11  12  13  14  15  25  28  32  33  34  35 0
 6-311+G(2d,p)
 ****
 36  39  40 0
 6-311+G(2d,p)
 ****
 1  2  3  4  5  16  17  18  19  20  21  22  23  24 0
 3-21G
 ****
 26  27  29  30  31  37  38  41  42  43  44  45  46  47 0
 3-21G
 ****
 48 0
 3-21G
 ****


