%nproc=1
%NoSave
%Mem=1900MB
#P OB98/GEN NMR

erre ene a

0 1
  C       93.497     -22.780    -894.510
  O       93.528     -24.166    -894.210
  P       92.230     -25.034    -894.590
  C       92.618     -25.589    -897.100
  O       92.691     -26.029    -895.750
  C       93.431     -26.518    -898.010
  O       94.844     -26.391    -897.720
  C       93.100     -27.995    -897.840
  O       91.891     -28.311    -898.500
  C       94.345     -28.643    -898.460
  O       94.187     -28.789    -899.880
  C       95.457     -27.640    -898.120
  N       96.380     -28.126    -897.100
  C       97.625     -28.557    -897.550
  O       97.896     -28.515    -898.750
  N       98.529     -29.048    -896.630
  C       98.200     -29.126    -895.380
  N       99.118     -29.616    -894.510
  C       96.877     -28.700    -894.860
  C       96.018     -28.231    -895.760
  O       91.295     -23.982    -895.360
  O       91.535     -25.657    -893.430
  H       93.577     -29.546    -900.000
  H       90.357     -24.217    -895.290
  H       96.651     -28.783    -893.800
  H       95.026     -27.899    -895.470
  H       96.052     -27.408    -899.010
  H       94.515     -29.637    -898.050
  H       93.041     -28.257    -896.780
  H       93.270     -26.209    -899.060
  H      100.021     -29.907    -894.900
  H       93.044     -24.577    -897.180
  H       98.982     -29.693    -893.520
  H       91.579     -25.560    -897.420
  P       91.042     -29.537    -897.930
  C       89.696     -28.502    -896.010
  O       89.686     -28.879    -897.370
  O       91.818     -29.892    -896.580
  O       90.877     -30.726    -898.820
  H       91.446     -30.712    -896.180
  H       88.788     -27.921    -895.790
  H       90.555     -27.878    -895.770
  H       89.696     -29.397    -895.380
  H       94.418     -22.329    -894.206
  H       92.685     -22.320    -893.987
  H       93.364     -22.646    -895.563

 3  4  5  6  7  8  9  10  11  12  13  21  23  27  28  29  30  32 0
 6-311+G(2d,p)
 ****
 34  35 0
 6-311+G(2d,p)
 ****
 1  2  14  15  16  17  18  19  20  22  24  25  26 0
 3-21G
 ****
 31  33  36  37  38  39  40  41  42  43  44  45  46 0
 3-21G
 ****


