%nproc=1
%NoSave
%Mem=1900MB
#P OB98/GEN NMR

erre ene a

0 1
  C      -44.446    -893.570      -9.543
  O      -44.807    -894.770      -8.895
  H      -43.496    -893.220      -9.127
  H      -45.204    -892.800      -9.368
  H      -44.320    -893.730     -10.614
  P      -46.043    -895.590      -9.502
  C      -47.750    -894.580      -7.817
  O      -47.359    -894.730      -9.173
  C      -49.142    -893.940      -7.729
  O      -50.074    -894.770      -8.474
  C      -49.681    -893.820      -6.296
  O      -50.439    -892.590      -6.212
  C      -50.623    -894.990      -6.182
  O      -51.626    -894.830      -5.190
  C      -51.190    -895.070      -7.604
  N      -51.784    -896.360      -7.919
  C      -53.076    -896.590      -7.457
  O      -53.789    -895.760      -6.899
  N      -53.565    -897.860      -7.690
  C      -52.887    -898.880      -8.282
  O      -53.379    -900.000      -8.441
  C      -51.525    -898.580      -8.738
  C      -51.043    -897.340      -8.529
  O      -46.166    -896.840      -8.515
  O      -45.907    -895.990     -10.928
  H      -45.616    -897.580      -8.829
  H      -52.295    -895.540      -5.319
  H      -54.495    -898.050      -7.373
  H      -50.954    -899.370      -9.196
  H      -50.023    -897.100      -8.832
  H      -51.931    -894.270      -7.757
  H      -50.054    -895.900      -5.947
  H      -48.912    -893.830      -5.526
  H      -49.111    -892.970      -8.231
  H      -47.028    -893.930      -7.304
  H      -47.753    -895.560      -7.328
  P      -49.843    -891.420      -5.304
  C      -51.751    -891.860      -3.548
  O      -50.363    -891.730      -3.811
  O      -50.731    -890.180      -5.781
  O      -48.367    -891.250      -5.458
  H      -51.647    -890.430      -5.996
  H      -51.899    -892.063      -2.508
  H      -52.150    -892.665      -4.129
  H      -52.250    -890.950      -3.808

 6  7  8  9  10  11  12  13  14  15  16  27  31  32  33  34  35 0
 6-311+G(2d,p)
 ****
 36  37 0
 6-311+G(2d,p)
 ****
 1  2  3  4  5  17  18  19  20  21  22  23  24  25 0
 3-21G
 ****
 26  28  29  30  38  39  40  41  42  43  44  45 0
 3-21G
 ****


