%nproc=1
%NoSave
%Mem=1900MB
#P OB98/GEN NMR

erre ene a

0 1
  C        2.813     160.558     115.437
  O        2.538     160.050     116.734
  H        1.885     160.594     114.878
  H        3.517     159.891     114.926
  H        3.233     161.569     115.505
  P        3.744     160.086     117.796
  C        3.699     162.686     118.147
  O        4.388     161.551     117.655
  C        4.657     163.878     118.265
  O        5.738     163.513     119.164
  C        5.275     164.316     116.937
  O        5.401     165.744     116.940
  C        6.664     163.674     116.959
  O        7.572     164.373     116.122
  C        6.984     163.723     118.462
  N        7.989     162.719     118.843
  C        9.299     163.146     118.954
  O        9.591     164.331     118.704
  N       10.275     162.243     119.289
  C        9.964     160.997     119.419
  N       10.976     160.143     119.726
  C        8.592     160.472     119.269
  C        7.658     161.385     119.002
  O        4.823     159.127     117.103
  O        3.346     159.691     119.176
  H        8.471     164.020     116.289
  H        4.892     159.257     116.141
  H        8.384     159.427     119.378
  H        6.618     161.093     118.878
  H        7.366     164.709     118.754
  H        6.606     162.643     116.616
  H        4.701     163.996     116.062
  H        4.117     164.701     118.749
  H       11.910     160.525     119.812
  H        3.262     162.476     119.129
  H       10.861     159.138     119.814
  H        2.893     162.920     117.450
  P        4.602     166.585     115.826
  C        2.815     167.473     117.460
  O        3.074     166.725     116.276
  O        4.815     166.175     114.418
  O        5.153     168.086     116.071
  H        5.266     168.507     115.193
  H        1.762     167.490     117.648
  H        3.171     168.474     117.334
  H        3.318     167.017     118.287

 6  7  8  9  10  11  12  13  14  15  16  26  30  31  32  33  35 0
 6-311+G(2d,p)
 ****
 37  38 0
 6-311+G(2d,p)
 ****
 1  2  3  4  5  17  18  19  20  21  22  23  24  25 0
 3-21G
 ****
 27  28  29  34  36  39  40  41  42  43  44  45  46 0
 3-21G
 ****


