%nproc=1
%NoSave
%Mem=1900MB
#P OB98/GEN NMR

erre ene a

0 1
  C      126.431      96.362      73.143
  O      127.176      95.373      72.469
  H      126.574      96.231      74.220
  H      125.365      96.252      72.925
  H      126.771      97.361      72.862
  P      127.117      95.300      70.866
  C      125.987      93.009      70.604
  O      127.208      93.730      70.511
  C      126.187      91.681      71.335
  O      126.156      91.907      72.772
  C      125.115      90.628      71.011
  O      125.739      89.372      70.732
  C      124.314      90.524      72.300
  O      123.646      89.275      72.443
  C      125.402      90.821      73.339
  N      124.838      91.155      74.641
  C      124.235      90.104      75.339
  O      124.205      88.974      74.853
  N      123.633      90.370      76.544
  C      123.593      91.589      76.986
  N      122.957      91.787      78.172
  C      124.194      92.732      76.269
  C      124.798      92.447      75.114
  O      128.109      96.165      70.165
  O      125.602      95.655      70.496
  H      124.324      88.567      72.525
  H      125.566      95.973      69.564
  H      124.130      93.729      76.679
  H      125.267      93.220      74.515
  H      126.076      89.963      73.459
  H      123.555      91.318      72.318
  H      124.482      90.904      70.169
  H      127.192      91.306      71.105
  H      122.553      90.976      78.625
  H      125.604      92.835      69.592
  H      122.841      92.691      78.602
  H      125.268      93.618      71.161
  P      125.864      88.972      69.183
  C      125.164      86.472      69.113
  O      126.232      87.411      69.104
  O      127.205      89.709      68.718
  O      124.691      89.394      68.363
  H      126.987      90.445      68.114
  H      125.561      85.480      69.056
  H      124.526      86.650      68.273
  H      124.602      86.580      70.017

 6  7  8  9  10  11  12  13  14  15  16  26  30  31  32  33  35 0
 6-311+G(2d,p)
 ****
 37  38 0
 6-311+G(2d,p)
 ****
 1  2  3  4  5  17  18  19  20  21  22  23  24  25 0
 3-21G
 ****
 27  28  29  34  36  39  40  41  42  43  44  45  46 0
 3-21G
 ****


