%nproc=1
%NoSave
%Mem=1900MB
#P OB98/GEN NMR

erre ene a

0 1
  C     -451.859    -442.861     407.737
  O     -450.847    -442.315     408.553
  H     -451.539    -442.801     406.693
  H     -452.785    -442.288     407.854
  H     -452.046    -443.911     407.984
  P     -450.912    -442.568     410.135
  C     -448.327    -442.578     410.179
  O     -449.519    -442.054     410.747
  C     -447.086    -441.928     410.817
  O     -447.217    -440.486     410.727
  C     -446.979    -442.276     412.305
  O     -445.628    -442.264     412.768
  C     -447.740    -441.138     412.974
  O     -447.361    -440.933     414.336
  C     -447.391    -439.963     412.056
  N     -449.999    -436.541     414.788
  C     -449.189    -437.559     415.228
  N     -449.040    -437.681     416.569
  N     -448.581    -438.399     414.423
  C     -448.874    -438.198     413.111
  C     -449.683    -437.242     412.561
  C     -450.324    -436.290     413.458
  O     -451.076    -435.386     413.118
  N     -449.739    -437.355     411.194
  C     -448.975    -438.391     410.914
  N     -448.401    -438.926     412.045
  O     -450.779    -444.161     410.269
  O     -452.141    -442.059     410.825
  H     -447.818    -440.131     414.651
  H     -451.144    -444.455     411.116
  H     -450.418    -435.897     415.444
  H     -448.789    -438.785     409.929
  H     -446.447    -439.501     412.362
  H     -448.801    -441.385     412.964
  H     -449.641    -437.188     417.207
  H     -447.426    -443.236     412.550
  H     -448.714    -438.588     416.902
  H     -446.194    -442.206     410.257
  H     -448.364    -442.366     409.106
  H     -448.295    -443.661     410.295
  P     -444.864    -443.656     412.934
  C     -442.424    -442.611     412.979
  O     -443.422    -443.414     413.590
  O     -444.541    -444.100     411.440
  O     -445.646    -444.699     413.672
  H     -445.020    -444.911     411.207
  H     -441.551    -442.596     413.597
  H     -442.793    -441.614     412.859
  H     -442.176    -443.018     412.021

 6  7  8  9  10  11  12  13  14  15  26  29  33  34 0
 6-311+G(2d,p)
 ****
 36  38  39  40  41 0
 6-311+G(2d,p)
 ****
 1  2  3  4  5  16  17  18  19  20  21  22  23  24  25 0
 3-21G
 ****
 27  28  30  31  32  35  37  42  43  44  45  46  47 0
 3-21G
 ****
 48  49 0
 3-21G
 ****


