%nproc=1
%NoSave
%Mem=1900MB
#P OB98/GEN NMR

erre ene a

0 1
  C      355.169      16.397     255.377
  O      355.325      15.835     254.089
  P      356.552      16.276     253.157
  C      356.256      18.796     252.755
  O      356.934      17.790     253.508
  C      357.167      20.000     252.528
  O      357.236      20.818     253.716
  C      358.612      19.639     252.212
  O      358.756      19.125     250.900
  C      359.306      20.972     252.461
  O      359.156      21.845     251.337
  C      358.511      21.512     253.671
  N      359.239      21.364     254.924
  C      360.440      22.073     255.018
  O      360.873      22.705     254.056
  N      361.128      22.037     256.211
  C      360.717      21.263     257.171
  N      361.404      21.316     258.342
  C      359.544      20.381     257.041
  C      358.843      20.496     255.914
  O      356.381      15.990     251.702
  O      357.799      15.455     253.750
  H      358.256      15.005     253.016
  H      359.718      21.481     250.625
  H      359.282      19.703     257.848
  H      357.949      19.905     255.746
  H      358.272      22.568     253.523
  H      360.381      20.850     252.644
  H      358.971      18.896     252.935
  H      356.734      20.602     251.716
  H      362.192      21.950     258.397
  H      355.362      19.106     253.308
  H      360.995      21.021     259.231
  H      355.936      18.372     251.796
  P      359.340      17.640     250.763
  C      361.820      18.229     251.208
  O      360.661      17.557     251.664
  O      359.896      17.598     249.261
  O      358.338      16.554     250.996
  H      359.749      16.716     248.878
  H      362.493      18.376     252.058
  H      361.578      19.208     250.777
  H      362.324      17.612     250.461
  H      354.300      15.983     255.844
  H      355.057      17.458     255.292
  H      356.032      16.176     255.970

 3  4  5  6  7  8  9  10  11  12  13  24  27  28  29  30  32 0
 6-311+G(2d,p)
 ****
 34  35 0
 6-311+G(2d,p)
 ****
 1  2  14  15  16  17  18  19  20  21  22  23  25  26 0
 3-21G
 ****
 31  33  36  37  38  39  40  41  42  43  44  45  46 0
 3-21G
 ****


