%nproc=1
%NoSave
%Mem=1900MB
#P OB98/GEN NMR

erre ene a

0 1
  C      -94.192    -162.626     380.272
  O      -94.486    -161.362     379.717
  H      -94.075    -162.514     381.353
  H      -93.254    -163.001     379.855
  H      -94.993    -163.343     380.079
  P      -95.146    -161.295     378.261
  C      -93.315    -162.377     376.796
  O      -94.592    -162.535     377.401
  C      -93.339    -162.759     375.315
  O      -93.487    -164.190     375.186
  C      -94.514    -162.124     374.566
  O      -94.256    -160.824     374.060
  C      -94.738    -163.120     373.430
  O      -93.919    -162.802     372.290
  C      -94.312    -164.460     374.041
  N      -97.907    -167.780     372.561
  C      -97.050    -167.023     371.781
  N      -97.208    -167.144     370.445
  N      -96.152    -166.216     372.278
  C      -96.182    -166.125     373.626
  C      -96.998    -166.809     374.503
  C      -97.947    -167.754     373.947
  O      -98.714    -168.461     374.597
  N      -96.775    -166.429     375.803
  C      -95.892    -165.454     375.703
  N      -95.444    -165.291     374.410
  O      -94.407    -160.044     377.575
  O      -96.634    -161.107     378.235
  H      -93.005    -162.666     372.607
  H      -95.014    -159.612     376.949
  H      -98.561    -168.404     372.122
  H      -95.507    -164.872     376.532
  H      -93.702    -165.042     373.339
  H      -95.776    -163.095     373.087
  H      -97.938    -167.683     370.011
  H      -95.413    -162.113     375.191
  H      -96.730    -166.469     369.839
  H      -92.377    -162.492     374.854
  H      -92.630    -163.031     377.340
  H      -92.961    -161.350     376.922
  P      -95.399    -159.708     374.045
  C      -96.209    -159.953     371.556
  O      -96.475    -160.102     372.938
  O      -94.660    -158.444     373.405
  O      -96.005    -159.389     375.370
  H      -94.365    -157.824     374.102
  H      -97.060    -160.274     370.992
  H      -95.360    -160.547     371.290
  H      -96.006    -158.925     371.341

 6  7  8  9  10  11  12  13  14  15  26  29  33  34 0
 6-311+G(2d,p)
 ****
 36  38  39  40  41 0
 6-311+G(2d,p)
 ****
 1  2  3  4  5  16  17  18  19  20  21  22  23  24  25 0
 3-21G
 ****
 27  28  30  31  32  35  37  42  43  44  45  46  47 0
 3-21G
 ****
 48  49 0
 3-21G
 ****


