%nproc=1
%NoSave
%Mem=1900MB
#P OB98/GEN NMR

erre ene a

0 1
  C     -230.420     -57.263    -178.900
  O     -229.882     -57.912    -180.033
  H     -230.933     -56.353    -179.227
  H     -229.617     -56.982    -178.208
  H     -231.142     -57.906    -178.390
  P     -229.188     -59.348    -179.848
  C     -227.441     -60.316    -178.219
  O     -227.959     -59.143    -178.838
  C     -226.692     -59.938    -176.941
  O     -227.525     -59.109    -176.098
  C     -226.293     -61.133    -176.080
  O     -225.187     -61.813    -176.641
  C     -226.031     -60.451    -174.749
  O     -224.735     -59.821    -174.737
  C     -227.152     -59.383    -174.727
  N     -228.315     -59.803    -173.940
  C     -228.462     -59.200    -172.692
  O     -227.670     -58.367    -172.248
  N     -229.528     -59.631    -171.945
  C     -230.387     -60.641    -172.282
  O     -231.187     -61.136    -171.493
  C     -230.232     -61.180    -173.641
  C     -229.209     -60.756    -174.388
  O     -228.860     -60.078    -181.108
  O     -230.249     -60.163    -178.958
  H     -230.761     -60.764    -179.536
  H     -224.746     -59.161    -175.459
  H     -229.615     -59.237    -171.018
  H     -230.932     -61.940    -173.973
  H     -229.059     -61.163    -175.385
  H     -226.776     -58.443    -174.305
  H     -226.052     -61.146    -173.909
  H     -227.146     -61.818    -175.967
  H     -225.806     -59.351    -177.226
  H     -226.748     -60.804    -178.915
  H     -228.264     -61.001    -177.997
  P     -225.072     -63.412    -176.593
  C     -224.621     -65.209    -174.822
  O     -224.508     -63.828    -175.151
  O     -224.353     -64.031    -177.746
  O     -226.603     -63.904    -176.540
  H     -226.748     -64.558    -177.252
  H     -224.218     -65.377    -173.845
  H     -224.079     -65.792    -175.537
  H     -225.652     -65.496    -174.836

 6  7  8  9  10  11  12  13  14  15  16  27  31  32  33  34  35 0
 6-311+G(2d,p)
 ****
 36  37 0
 6-311+G(2d,p)
 ****
 1  2  3  4  5  17  18  19  20  21  22  23  24  25 0
 3-21G
 ****
 26  28  29  30  38  39  40  41  42  43  44  45 0
 3-21G
 ****


