%nproc=1
%NoSave
%Mem=1900MB
#P OB98/GEN NMR

erre ene a

0 1
  C     -958.281    -638.778    -530.773
  O     -958.620    -637.821    -531.784
  P     -957.668    -636.557    -531.996
  C     -958.084    -636.930    -534.520
  O     -957.891    -635.986    -533.479
  C     -959.136    -636.458    -535.519
  O     -960.429    -636.368    -534.845
  C     -958.902    -635.070    -536.100
  O     -958.118    -634.965    -537.302
  C     -960.328    -634.631    -536.467
  O     -960.674    -635.181    -537.765
  C     -961.189    -635.260    -535.388
  N     -965.095    -633.146    -532.857
  C     -965.048    -634.056    -533.850
  N     -963.975    -634.567    -534.474
  C     -962.844    -634.059    -533.945
  C     -962.737    -633.128    -532.939
  C     -963.922    -632.654    -532.378
  N     -963.977    -631.735    -531.356
  N     -961.391    -632.832    -532.666
  C     -960.732    -633.556    -533.542
  N     -961.555    -634.336    -534.324
  O     -956.244    -636.738    -531.589
  O     -958.381    -635.437    -531.093
  H     -959.981    -634.876    -538.372
  H     -957.683    -634.890    -530.667
  H     -966.006    -634.432    -534.194
  H     -959.637    -633.562    -533.640
  H     -962.125    -635.680    -535.781
  H     -960.420    -633.549    -536.566
  H     -958.486    -634.381    -535.341
  H     -959.241    -637.195    -536.335
  H     -958.388    -637.886    -534.082
  H     -964.887    -631.418    -531.042
  H     -963.118    -631.304    -531.033
  H     -957.108    -637.112    -534.985
  P     -956.724    -634.152    -537.317
  C     -955.771    -635.626    -539.285
  O     -956.160    -634.341    -538.806
  O     -955.761    -634.518    -536.245
  O     -957.201    -632.639    -537.300
  H     -957.649    -632.336    -538.111
  H     -955.623    -635.572    -540.373
  H     -956.537    -636.369    -539.070
  H     -954.817    -635.912    -538.805
  H     -959.014    -639.557    -530.759
  H     -958.256    -638.295    -529.819
  H     -957.319    -639.196    -530.986

 3  4  5  6  7  8  9  10  11  12  22  25  29  30  31  32 0
 6-311+G(2d,p)
 ****
 33  36  37 0
 6-311+G(2d,p)
 ****
 1  2  13  14  15  16  17  18  19  20  21  23  24  26 0
 3-21G
 ****
 27  28  34  35  38  39  40  41  42  43  44  45  46  47  48 0
 3-21G
 ****


