%nproc=1
%NoSave
%Mem=1900MB
#P OB98/GEN NMR

erre ene a

0 1
  C      240.837     659.089     404.247
  O      239.604     658.407     404.147
  H      240.804     659.747     405.121
  H      240.996     659.706     403.355
  H      241.670     658.397     404.367
  P      239.489     657.175     403.136
  C      237.039     656.865     402.383
  O      238.022     656.548     403.352
  C      235.808     655.970     402.532
  O      236.230     654.572     402.455
  C      235.062     656.149     403.859
  O      233.671     655.886     403.618
  C      235.669     655.050     404.704
  O      234.874     654.757     405.838
  C      235.803     653.934     403.668
  N      236.735     652.880     404.091
  C      236.353     652.124     405.194
  O      235.317     652.308     405.824
  N      237.236     651.151     405.581
  C      238.459     650.910     405.032
  O      239.227     650.047     405.440
  C      238.829     651.779     403.893
  C      237.961     652.706     403.485
  O      240.601     656.183     403.183
  O      239.366     657.854     401.689
  H      234.682     655.578     406.337
  H      239.746     657.271     401.008
  H      236.972     650.578     406.369
  H      239.801     651.626     403.441
  H      238.208     653.362     402.653
  H      234.834     653.457     403.477
  H      236.658     655.348     405.070
  H      235.186     657.147     404.292
  H      235.134     656.143     401.675
  H      237.489     656.725     401.382
  H      236.746     657.917     402.486
  P      232.505     656.835     404.171
  C      231.133     654.666     404.422
  O      231.114     656.052     404.077
  O      232.490     658.201     403.570
  O      232.773     656.919     405.758
  H      232.440     657.764     406.101
  H      230.149     654.259     404.319
  H      231.461     654.555     405.434
  H      231.804     654.146     403.771

 6  7  8  9  10  11  12  13  14  15  16  26  31  32  33  34  35 0
 6-311+G(2d,p)
 ****
 36  37 0
 6-311+G(2d,p)
 ****
 1  2  3  4  5  17  18  19  20  21  22  23  24  25 0
 3-21G
 ****
 27  28  29  30  38  39  40  41  42  43  44  45 0
 3-21G
 ****


