%nproc=1
%NoSave
%Mem=1900MB
#P OB98/GEN NMR

erre ene a

0 1
  C      177.208    -922.371     476.369
  O      177.490    -923.644     476.906
  H      178.146    -921.914     476.035
  H      176.758    -921.725     477.132
  H      176.536    -922.462     475.513
  P      176.244    -924.471     477.492
  C      176.486    -926.240     475.635
  O      175.648    -925.247     476.216
  C      175.951    -926.651     474.257
  O      174.687    -927.328     474.445
  C      175.713    -925.469     473.317
  O      176.066    -925.839     471.986
  C      174.213    -925.244     473.396
  O      173.692    -924.619     472.227
  C      173.695    -926.668     473.627
  N      168.901    -924.941     473.345
  C      169.938    -924.892     472.469
  N      171.178    -925.396     472.626
  C      171.289    -926.039     473.802
  C      170.338    -926.162     474.786
  C      169.087    -925.572     474.527
  N      168.040    -925.588     475.418
  N      170.845    -926.861     475.879
  C      172.082    -927.155     475.534
  N      172.401    -926.668     474.298
  O      175.256    -923.675     478.276
  O      176.977    -925.640     478.300
  H      172.735    -924.804     472.168
  H      177.719    -926.015     477.789
  H      169.744    -924.385     471.530
  H      172.795    -927.711     476.144
  H      173.584    -927.232     472.694
  H      173.972    -924.603     474.257
  H      176.270    -924.575     473.617
  H      176.646    -927.382     473.816
  H      176.542    -927.120     476.284
  H      167.168    -925.149     475.142
  H      168.150    -926.075     476.302
  H      177.490    -925.814     475.536
  P      177.506    -925.393     471.431
  C      178.861    -927.531     471.936
  O      178.649    -926.153     472.262
  O      177.707    -923.930     471.253
  O      177.563    -926.140     470.013
  H      178.002    -925.571     469.356
  H      179.642    -927.927     472.551
  H      179.141    -927.615     470.907
  H      177.959    -928.081     472.106

 6  7  8  9  10  11  12  13  14  15  25  28  32  33  34  35 0
 6-311+G(2d,p)
 ****
 36  39  40 0
 6-311+G(2d,p)
 ****
 1  2  3  4  5  16  17  18  19  20  21  22  23  24 0
 3-21G
 ****
 26  27  29  30  31  37  38  41  42  43  44  45  46  47 0
 3-21G
 ****
 48 0
 3-21G
 ****


