%nproc=1
%NoSave
%Mem=1900MB
#P OB98/GEN NMR

erre ene a

0 1
  C       46.147     -14.350       8.515
  O       45.344     -15.455       8.153
  H       45.501     -13.546       8.874
  H       46.705     -13.992       7.646
  H       46.842     -14.628       9.312
  P       46.103     -16.793       7.704
  C       44.916     -17.111       5.408
  O       45.092     -17.581       6.736
  C       43.430     -16.868       5.138
  O       42.783     -18.151       4.924
  C       42.708     -16.176       6.300
  O       41.727     -15.280       5.772
  C       42.021     -17.326       7.015
  O       40.894     -16.931       7.785
  C       41.666     -18.234       5.833
  N       41.430     -19.618       6.239
  C       40.111     -20.054       6.292
  O       39.137     -19.385       5.951
  N       39.929     -21.329       6.765
  C       40.905     -22.174       7.201
  O       40.677     -23.296       7.636
  C       42.278     -21.653       7.129
  C       42.474     -20.419       6.661
  O       46.100     -17.683       9.034
  O       47.471     -16.602       7.143
  H       46.903     -17.509       9.562
  H       40.234     -16.541       7.175
  H       38.978     -21.661       6.808
  H       43.079     -22.293       7.475
  H       43.473     -20.000       6.609
  H       40.785     -17.848       5.307
  H       42.730     -17.825       7.687
  H       43.386     -15.634       6.960
  H       43.326     -16.294       4.209
  H       45.291     -17.863       4.708
  H       45.482     -16.184       5.275
  P       42.212     -13.797       5.389
  C       40.676     -12.553       7.099
  O       40.983     -12.827       5.743
  O       42.217     -13.868       3.794
  O       43.518     -13.433       6.014
  H       41.492     -14.402       3.427
  H       39.835     -11.894       7.148
  H       41.519     -12.091       7.569
  H       40.443     -13.467       7.604

 6  7  8  9  10  11  12  13  14  15  16  27  31  32  33  34  35 0
 6-311+G(2d,p)
 ****
 36  37 0
 6-311+G(2d,p)
 ****
 1  2  3  4  5  17  18  19  20  21  22  23  24  25 0
 3-21G
 ****
 26  28  29  30  38  39  40  41  42  43  44  45 0
 3-21G
 ****


