%nproc=1
%NoSave
%Mem=1900MB
#P OB98/GEN NMR

erre ene a

0 1
  C       14.641      45.476     -61.352
  O       15.652      45.166     -60.416
  H       13.742      44.909     -61.094
  H       14.956      45.188     -62.358
  H       14.401      46.543     -61.326
  P       17.053      45.941     -60.505
  C       16.922      48.493     -60.226
  O       16.925      47.237     -59.565
  C       17.672      49.536     -59.401
  O       16.881      49.861     -58.229
  C       19.050      49.067     -58.922
  O       19.949      50.175     -58.975
  C       18.807      48.677     -57.478
  O       19.986      48.779     -56.682
  C       17.708      49.655     -57.068
  N       16.870      50.059     -52.104
  C       17.691      50.798     -52.932
  N       18.419      51.776     -52.353
  N       17.792      50.594     -54.219
  C       16.998      49.593     -54.669
  C       16.145      48.789     -53.951
  C       16.051      49.016     -52.524
  O       15.353      48.387     -51.738
  N       15.530      47.867     -54.761
  C       16.015      48.112     -55.965
  N       16.917      49.143     -55.959
  O       17.539      46.229     -61.889
  O       18.068      45.003     -59.702
  H       20.374      49.664     -56.856
  H       18.603      44.468     -60.316
  H       16.837      50.253     -51.118
  H       15.753      47.573     -56.866
  H       18.109      50.625     -56.750
  H       18.449      47.640     -57.429
  H       18.379      52.002     -51.371
  H       19.447      48.236     -59.513
  H       19.011      52.348     -52.945
  H       17.754      50.455     -59.994
  H       15.881      48.808     -60.361
  H       17.389      48.387     -61.212
  P       21.375      49.979     -59.679
  C       22.148      49.227     -62.018
  O       21.145      49.898     -61.264
  O       22.237      48.904     -59.105
  O       22.058      51.422     -59.503
  H       23.026      51.306     -59.446
  H       21.883      49.239     -63.055
  H       22.229      48.214     -61.682
  H       23.087      49.723     -61.884

 6  7  8  9  10  11  12  13  14  15  26  29  33  34 0
 6-311+G(2d,p)
 ****
 36  38  39  40  41 0
 6-311+G(2d,p)
 ****
 1  2  3  4  5  16  17  18  19  20  21  22  23  24  25 0
 3-21G
 ****
 27  28  30  31  32  35  37  42  43  44  45  46  47 0
 3-21G
 ****
 48  49 0
 3-21G
 ****


