%nproc=1
%NoSave
%Mem=1900MB
#P OB98/GEN NMR

erre ene a

0 1
  C      337.444    -708.606     510.009
  O      336.404    -709.516     510.320
  P      336.817    -710.980     510.823
  C      338.365    -712.861     509.878
  O      337.649    -711.651     509.618
  C      339.473    -713.039     508.846
  O      340.591    -712.163     509.125
  C      340.068    -714.436     508.802
  O      339.262    -715.343     508.048
  C      341.381    -714.180     508.092
  O      341.164    -714.076     506.658
  C      341.794    -712.815     508.671
  N      346.633    -712.226     510.011
  C      345.984    -711.829     508.856
  N      346.759    -711.244     507.907
  N      344.714    -711.980     508.655
  C      344.069    -712.592     509.691
  C      344.611    -713.027     510.881
  C      346.031    -712.853     511.089
  O      346.673    -713.235     512.063
  N      343.652    -713.586     511.680
  C      342.530    -713.486     510.987
  N      342.742    -712.923     509.756
  O      335.432    -711.786     510.815
  O      337.488    -711.013     512.165
  H      342.030    -713.856     506.272
  H      335.514    -712.597     511.354
  H      347.637    -712.087     510.119
  H      341.562    -713.816     511.329
  H      342.236    -712.174     507.887
  H      342.119    -714.979     508.249
  H      347.759    -711.151     507.969
  H      340.271    -714.820     509.815
  H      346.305    -711.001     507.013
  H      339.068    -712.749     507.851
  H      337.685    -713.702     509.842
  H      338.789    -712.804     510.884
  P      339.660    -716.890     508.131
  C      341.794    -718.166     507.354
  O      340.915    -717.060     507.151
  O      338.459    -717.617     507.348
  O      339.831    -717.416     509.527
  H      338.358    -718.531     507.668
  H      342.414    -718.292     506.456
  H      341.232    -719.098     507.504
  H      342.441    -717.983     508.213
  H      337.021    -707.677     509.689
  H      338.049    -709.011     509.225
  H      338.047    -708.443     510.878

 3  4  5  6  7  8  9  10  11  12  23  26  30  31 0
 6-311+G(2d,p)
 ****
 33  35  36  37  38 0
 6-311+G(2d,p)
 ****
 1  2  13  14  15  16  17  18  19  20  21  22  24  25 0
 3-21G
 ****
 27  28  29  32  34  39  40  41  42  43  44  45  46  47  48  49 0
 3-21G
 ****


