%nproc=1
%NoSave
%Mem=1900MB
#P OB98/GEN NMR

erre ene a

0 1
  C      211.511     589.859     202.104
  O      210.703     590.944     201.700
  P      209.691     590.708     200.475
  C      209.952     590.317     197.912
  O      210.574     590.338     199.192
  C      210.939     590.840     196.860
  O      212.267     590.334     197.107
  C      210.595     590.399     195.438
  O      209.544     591.185     194.895
  C      211.927     590.589     194.725
  O      212.110     591.955     194.319
  C      212.935     590.213     195.831
  N      213.512     588.881     195.644
  C      214.693     588.824     194.926
  O      215.234     589.822     194.446
  N      215.224     587.578     194.735
  C      214.661     586.402     195.140
  O      215.157     585.306     194.889
  C      213.392     586.513     195.871
  C      212.879     587.727     196.081
  O      209.130     592.168     200.150
  O      208.588     589.738     200.762
  H      211.246     592.252     193.961
  H      208.192     592.116     199.876
  H      216.095     587.512     194.239
  H      212.926     585.604     196.206
  H      211.934     587.844     196.605
  H      213.757     590.933     195.855
  H      212.000     589.974     193.825
  H      210.332     589.327     195.432
  H      210.968     591.932     196.921
  H      209.064     590.942     197.928
  H      209.654     589.290     197.685
  P      209.052     590.813     193.409
  C      210.184     591.044     191.060
  O      210.220     591.350     192.435
  O      207.842     591.836     193.222
  O      208.672     589.375     193.266
  H      208.003     592.681     193.695
  H      209.155     591.028     190.676
  H      210.649     590.078     190.890
  H      210.744     591.804     190.513
  H      212.129     590.161     202.923
  H      212.128     589.550     201.286
  H      210.888     589.044     202.408

 3  4  5  6  7  8  9  10  11  12  13  23  28  29  30  31  32 0
 6-311+G(2d,p)
 ****
 33  34 0
 6-311+G(2d,p)
 ****
 1  2  14  15  16  17  18  19  20  21  22  24  25  26 0
 3-21G
 ****
 27  35  36  37  38  39  40  41  42  43  44  45 0
 3-21G
 ****


