%nproc=1
%NoSave
%Mem=1900MB
#P OB98/GEN NMR

erre ene a

0 1
  C      -94.631      -8.332     169.688
  O      -95.310      -9.569     169.625
  H      -93.573      -8.499     169.447
  H      -94.694      -7.919     170.698
  H      -95.046      -7.619     168.970
  P      -96.911      -9.578     169.736
  C      -96.878      -8.906     172.225
  O      -97.265      -9.888     171.272
  C      -96.732      -9.553     173.606
  O      -96.211      -8.591     174.552
  C      -98.049     -10.052     174.200
  O      -98.457     -11.261     173.586
  C      -97.666     -10.177     175.671
  O      -96.938     -11.390     175.909
  C      -96.747      -8.936     175.853
  N      -97.434      -7.795     176.457
  C      -97.836      -7.946     177.782
  O      -97.672      -8.987     178.420
  N      -98.451      -6.856     178.348
  C      -98.772      -5.694     177.704
  O      -99.374      -4.768     178.247
  C      -98.358      -5.611     176.297
  C      -97.716      -6.642     175.746
  O      -97.630     -10.431     168.746
  O      -97.306      -8.035     169.582
  H      -96.753     -11.426     176.869
  H      -97.614      -7.861     168.670
  H      -98.755      -6.950     179.304
  H      -98.602      -4.699     175.750
  H      -97.405      -6.598     174.710
  H      -95.885      -9.196     176.488
  H      -98.531     -10.189     176.330
  H      -98.828      -9.285     174.105
  H      -96.005     -10.375     173.522
  H      -97.651      -8.132     172.268
  H      -95.936      -8.453     171.909
  P      -99.965     -11.456     173.081
  C     -101.050     -11.701     175.389
  O     -100.730     -12.360     174.173
  O     -100.109     -11.930     171.669
  O     -100.625     -10.009     173.274
  H     -100.742      -9.576     172.401
  H     -101.553     -12.383     176.043
  H     -101.688     -10.866     175.185
  H     -100.151     -11.357     175.856

 6  7  8  9  10  11  12  13  14  15  16  26  31  32  33  34  35 0
 6-311+G(2d,p)
 ****
 36  37 0
 6-311+G(2d,p)
 ****
 1  2  3  4  5  17  18  19  20  21  22  23  24  25 0
 3-21G
 ****
 27  28  29  30  38  39  40  41  42  43  44  45 0
 3-21G
 ****


