%nproc=1
%NoSave
%Mem=1900MB
#P OB98/GEN NMR

erre ene a

0 1
  C     -446.710    -376.829     193.315
  O     -447.517    -377.244     192.225
  P     -448.176    -376.089     191.320
  C     -450.487    -377.220     191.782
  O     -449.715    -376.012     191.758
  C     -451.965    -376.904     191.560
  O     -452.490    -376.187     192.693
  C     -452.232    -376.024     190.358
  O     -452.157    -376.775     189.154
  C     -453.635    -375.506     190.673
  O     -454.642    -376.426     190.209
  C     -453.629    -375.425     192.213
  N     -453.590    -374.047     192.713
  C     -454.831    -373.451     192.925
  O     -455.879    -374.077     192.676
  N     -454.868    -372.152     193.361
  C     -453.763    -371.512     193.571
  N     -453.847    -370.219     194.018
  C     -452.426    -372.107     193.343
  C     -452.411    -373.368     192.909
  O     -448.237    -376.767     189.866
  O     -447.432    -374.796     191.312
  H     -455.498    -375.970     190.345
  H     -448.218    -376.086     189.166
  H     -451.531    -371.523     193.531
  H     -451.476    -373.882     192.721
  H     -454.522    -375.912     192.635
  H     -453.835    -374.542     190.194
  H     -451.534    -375.181     190.315
  H     -452.498    -377.860     191.470
  H     -454.776    -369.841     194.161
  H     -450.354    -377.706     192.754
  H     -453.043    -369.658     194.238
  H     -450.111    -377.890     191.003
  P     -451.221    -376.216     187.978
  C     -453.208    -375.634     186.461
  O     -452.123    -375.128     187.218
  O     -451.211    -377.442     186.949
  O     -449.839    -375.783     188.357
  H     -450.580    -377.253     186.223
  H     -453.820    -374.793     186.129
  H     -453.831    -376.296     187.080
  H     -452.834    -376.177     185.590
  H     -446.336    -377.689     193.830
  H     -447.295    -376.237     193.987
  H     -445.889    -376.247     192.950

 3  4  5  6  7  8  9  10  11  12  13  21  23  27  28  29  30  32 0
 6-311+G(2d,p)
 ****
 34  35 0
 6-311+G(2d,p)
 ****
 1  2  14  15  16  17  18  19  20  22  24  25  26 0
 3-21G
 ****
 31  33  36  37  38  39  40  41  42  43  44  45  46 0
 3-21G
 ****


