%nproc=1
%NoSave
%Mem=1900MB
#P OB98/GEN NMR

erre ene a

0 1
  C     -292.763    -150.822    -186.833
  O     -294.088    -150.650    -187.314
  P     -294.709    -149.168    -187.279
  C     -295.995    -149.625    -185.021
  O     -295.027    -148.866    -185.735
  C     -295.980    -149.239    -183.540
  O     -294.795    -149.774    -182.911
  C     -295.944    -147.739    -183.275
  O     -297.215    -147.138    -183.464
  C     -295.428    -147.706    -181.838
  O     -296.507    -147.970    -180.916
  C     -294.424    -148.876    -181.834
  N     -293.038    -148.448    -181.962
  C     -292.085    -149.197    -181.261
  O     -292.382    -150.169    -180.566
  N     -290.788    -148.769    -181.366
  C     -290.363    -147.663    -182.040
  O     -289.186    -147.302    -182.066
  C     -291.400    -146.892    -182.735
  C     -292.670    -147.316    -182.665
  O     -296.141    -149.432    -187.943
  O     -293.860    -148.153    -187.979
  H     -296.439    -150.354    -187.805
  H     -296.228    -147.605    -180.056
  H     -290.083    -149.305    -180.888
  H     -291.101    -145.999    -183.269
  H     -293.454    -146.756    -183.161
  H     -294.524    -149.460    -180.905
  H     -294.993    -146.742    -181.568
  H     -295.208    -147.260    -183.940
  H     -296.858    -149.694    -183.057
  H     -295.766    -150.688    -185.123
  H     -296.983    -149.437    -185.460
  P     -297.220    -145.572    -183.855
  C     -297.212    -144.638    -181.412
  O     -296.522    -144.807    -182.631
  O     -298.777    -145.227    -183.707
  O     -296.644    -145.293    -185.202
  H     -299.185    -145.632    -182.914
  H     -296.478    -144.429    -180.623
  H     -297.776    -145.539    -181.148
  H     -297.897    -143.789    -181.489
  H     -292.484    -151.852    -186.916
  H     -292.714    -150.521    -185.807
  H     -292.092    -150.223    -187.413

 3  4  5  6  7  8  9  10  11  12  13  24  28  29  30  31  32 0
 6-311+G(2d,p)
 ****
 33  34 0
 6-311+G(2d,p)
 ****
 1  2  14  15  16  17  18  19  20  21  22  23  25  26  27 0
 3-21G
 ****
 35  36  37  38  39  40  41  42  43  44  45 0
 3-21G
 ****


