%nproc=1
%NoSave
%Mem=1900MB
#P OB98/GEN NMR

erre ene a

0 1
  C      -71.003      59.614     -53.360
  O      -70.286      59.982     -52.199
  H      -72.070      59.772     -53.177
  H      -70.841      58.561     -53.603
  H      -70.698      60.240     -54.203
  P      -68.728      59.603     -52.122
  C      -68.052      62.084     -51.883
  O      -67.944      60.897     -52.666
  C      -67.678      63.319     -52.707
  O      -68.679      63.566     -53.714
  C      -67.607      64.601     -51.892
  O      -66.525      64.651     -50.987
  C      -67.745      65.675     -52.961
  O      -66.508      66.028     -53.572
  C      -68.660      64.980     -53.997
  N      -70.001      65.550     -54.012
  C      -70.166      66.691     -54.789
  O      -69.251      67.223     -55.417
  N      -71.419      67.237     -54.790
  C      -72.485      66.791     -54.064
  O      -73.574      67.351     -54.075
  C      -72.244      65.596     -53.241
  C      -71.031      65.037     -53.251
  O      -68.334      58.327     -52.802
  O      -68.410      59.621     -50.555
  H      -65.950      66.432     -52.878
  H      -67.564      59.151     -50.358
  H      -71.560      68.059     -55.355
  H      -73.066      65.215     -52.650
  H      -70.828      64.154     -52.650
  H      -68.240      65.087     -55.006
  H      -68.173      66.593     -52.552
  H      -68.514      64.662     -51.279
  H      -66.727      63.119     -53.214
  H      -67.360      61.991     -51.040
  H      -69.071      62.178     -51.495
  P      -66.697      64.496     -49.406
  C      -65.043      62.536     -48.988
  O      -66.400      62.965     -49.016
  O      -67.874      65.177     -48.788
  O      -65.370      65.244     -48.871
  H      -65.601      65.682     -48.029
  H      -65.001      61.502     -48.715
  H      -64.500      63.117     -48.272
  H      -64.608      62.667     -49.957

 6  7  8  9  10  11  12  13  14  15  16  26  31  32  33  34  35 0
 6-311+G(2d,p)
 ****
 36  37 0
 6-311+G(2d,p)
 ****
 1  2  3  4  5  17  18  19  20  21  22  23  24  25 0
 3-21G
 ****
 27  28  29  30  38  39  40  41  42  43  44  45 0
 3-21G
 ****


