%nproc=1
%NoSave
%Mem=1900MB
#P OB98/GEN NMR

erre ene a

0 1
  C      125.379    -873.768     169.579
  O      126.445    -874.138     168.697
  P      126.106    -875.184     167.523
  C      127.623    -876.976     168.702
  O      126.351    -876.638     168.163
  C      127.618    -878.420     169.186
  O      127.592    -879.340     168.067
  C      128.848    -878.810     169.997
  O      128.795    -878.265     171.310
  C      128.768    -880.326     169.938
  O      127.822    -880.821     170.898
  C      128.233    -880.564     168.505
  N      129.259    -880.995     167.569
  C      129.877    -882.206     167.865
  O      129.605    -882.875     168.865
  N      130.840    -882.623     166.986
  C      131.260    -881.941     165.877
  O      132.110    -882.360     165.116
  C      130.601    -880.644     165.646
  C      129.647    -880.234     166.480
  O      127.344    -874.963     166.544
  O      124.763    -874.956     166.915
  H      128.175    -874.771     167.017
  H      128.197    -880.635     171.777
  H      131.294    -883.501     167.177
  H      130.925    -880.064     164.789
  H      129.156    -879.281     166.330
  H      127.434    -881.326     168.519
  H      129.732    -880.807     170.144
  H      129.753    -878.462     169.489
  H      126.707    -878.579     169.781
  H      127.852    -876.307     169.543
  H      128.384    -876.809     167.937
  P      129.583    -876.871     171.544
  C      131.688    -878.136     172.444
  O      131.144    -877.229     171.513
  O      129.268    -876.604     173.094
  O      129.146    -875.777     170.630
  H      129.368    -877.408     173.640
  H      132.640    -878.503     172.058
  H      131.022    -878.986     172.610
  H      131.862    -877.624     173.396
  H      125.743    -873.072     170.306
  H      125.008    -874.640     170.075
  H      124.590    -873.315     169.015

 3  4  5  6  7  8  9  10  11  12  13  24  28  29  30  31  32 0
 6-311+G(2d,p)
 ****
 33  34 0
 6-311+G(2d,p)
 ****
 1  2  14  15  16  17  18  19  20  21  22  23  25  26  27 0
 3-21G
 ****
 35  36  37  38  39  40  41  42  43  44  45 0
 3-21G
 ****


