%nproc=1
%NoSave
%Mem=1900MB
#P OB98/GEN NMR

erre ene a

0 1
  C      283.609    -575.753    -247.908
  O      283.381    -574.381    -248.171
  H      284.286    -575.832    -247.055
  H      284.069    -576.225    -248.773
  H      282.670    -576.254    -247.660
  P      282.332    -574.029    -249.331
  C      282.050    -571.598    -248.463
  O      282.410    -572.444    -249.560
  C      281.214    -570.420    -248.941
  O      281.949    -569.705    -249.985
  C      279.846    -570.811    -249.525
  O      278.906    -569.781    -249.180
  C      280.087    -570.748    -251.031
  O      278.879    -570.588    -251.773
  C      281.039    -569.553    -251.094
  N      281.504    -566.902    -255.352
  C      280.731    -566.672    -254.233
  N      279.957    -565.563    -254.239
  N      280.718    -567.458    -253.187
  C      281.561    -568.522    -253.294
  C      282.370    -568.867    -254.351
  C      282.360    -567.994    -255.516
  O      283.005    -568.156    -256.542
  N      283.052    -570.029    -254.090
  C      282.650    -570.377    -252.887
  N      281.745    -569.495    -252.357
  O      280.923    -574.244    -248.606
  O      282.447    -574.853    -250.577
  H      279.105    -570.666    -252.731
  H      280.591    -575.148    -248.764
  H      281.468    -566.267    -256.132
  H      282.990    -571.256    -252.340
  H      280.517    -568.595    -250.977
  H      280.579    -571.666    -251.365
  H      279.953    -564.887    -254.991
  H      279.471    -571.780    -249.189
  H      279.418    -565.352    -253.408
  H      281.094    -569.714    -248.107
  H      282.972    -571.222    -247.994
  H      281.494    -572.189    -247.729
  P      278.050    -569.963    -247.836
  C      277.907    -567.373    -247.654
  O      277.217    -568.612    -247.590
  O      279.176    -569.900    -246.689
  O      277.260    -571.226    -247.760
  H      278.879    -570.415    -245.914
  H      277.221    -566.573    -247.470
  H      278.340    -567.255    -248.626
  H      278.680    -567.357    -246.915

 6  7  8  9  10  11  12  13  14  15  26  29  33  34 0
 6-311+G(2d,p)
 ****
 36  38  39  40  41 0
 6-311+G(2d,p)
 ****
 1  2  3  4  5  16  17  18  19  20  21  22  23  24  25 0
 3-21G
 ****
 27  28  30  31  32  35  37  42  43  44  45  46  47 0
 3-21G
 ****
 48  49 0
 3-21G
 ****


