%nproc=1
%NoSave
%Mem=1900MB
#P OB98/GEN NMR

erre ene a

0 1
  C     -239.909     100.259     187.477
  O     -240.502     100.507     188.757
  P     -240.161     101.805     189.636
  C     -242.400     102.998     189.157
  O     -240.978     103.060     189.069
  C     -243.003     104.359     189.515
  O     -242.716     105.329     188.490
  C     -244.520     104.364     189.663
  O     -244.918     103.786     190.891
  C     -244.822     105.856     189.534
  O     -244.617     106.535     190.783
  C     -243.779     106.302     188.488
  N     -244.353     106.462     187.158
  C     -245.324     107.463     187.015
  O     -245.697     108.115     187.990
  N     -245.865     107.677     185.769
  C     -245.525     106.912     184.776
  N     -246.089     107.178     183.565
  C     -244.575     105.793     184.905
  C     -244.035     105.629     186.111
  O     -238.698     102.058     189.806
  O     -240.846     101.533     191.062
  H     -245.284     106.186     191.403
  H     -240.320     101.971     191.759
  H     -244.340     105.162     184.062
  H     -243.317     104.836     186.294
  H     -243.318     107.251     188.787
  H     -245.855     106.049     189.226
  H     -244.978     103.828     188.822
  H     -242.529     104.704     190.444
  H     -246.731     107.959     183.508
  H     -242.662     102.270     189.934
  H     -245.890     106.645     182.730
  H     -242.795     102.645     188.198
  P     -245.932     102.544     190.897
  C     -244.220     100.688     191.362
  O     -245.116     101.249     190.420
  O     -247.230     102.769     190.194
  O     -246.167     102.253     192.455
  H     -247.071     101.907     192.577
  H     -244.045      99.643     191.101
  H     -244.631     100.737     192.375
  H     -243.270     101.227     191.324
  H     -240.286      99.339     187.082
  H     -238.846     100.193     187.583
  H     -240.152     101.060     186.810

 3  4  5  6  7  8  9  10  11  12  13  23  27  28  29  30  32 0
 6-311+G(2d,p)
 ****
 34  35 0
 6-311+G(2d,p)
 ****
 1  2  14  15  16  17  18  19  20  21  22  24  25  26 0
 3-21G
 ****
 31  33  36  37  38  39  40  41  42  43  44  45  46 0
 3-21G
 ****


