%nproc=1
%NoSave
%Mem=1900MB
#P OB98/GEN NMR

erre ene a

0 1
  C     -362.842     752.634    -328.574
  O     -362.814     753.222    -329.866
  H     -362.184     751.761    -328.542
  H     -362.497     753.372    -327.847
  H     -363.864     752.334    -328.321
  P     -363.315     752.308    -331.084
  C     -361.974     751.281    -333.063
  O     -362.006     751.591    -331.678
  C     -361.465     749.861    -333.281
  O     -360.071     749.776    -332.927
  C     -362.181     748.798    -332.453
  O     -363.426     748.419    -333.023
  C     -361.156     747.665    -332.525
  O     -361.278     746.981    -333.789
  C     -359.824     748.422    -332.459
  N     -355.694     747.385    -329.609
  C     -355.923     747.281    -330.943
  N     -357.043     747.605    -331.630
  C     -357.987     748.081    -330.797
  C     -357.896     748.262    -329.432
  C     -356.680     747.880    -328.824
  N     -356.482     747.927    -327.457
  N     -359.086     748.769    -328.922
  C     -359.877     748.865    -329.972
  N     -359.255     748.477    -331.123
  O     -363.701     753.386    -332.205
  O     -364.460     751.402    -330.770
  H     -360.652     746.230    -333.763
  H     -364.662     753.550    -332.173
  H     -355.097     746.898    -331.533
  H     -360.898     749.211    -329.928
  H     -359.071     747.990    -333.121
  H     -361.298     746.913    -331.739
  H     -362.282     749.115    -331.405
  H     -361.552     749.642    -334.359
  H     -361.316     751.995    -333.582
  H     -355.826     747.228    -327.119
  H     -357.330     748.049    -326.912
  H     -362.987     751.395    -333.472
  P     -364.428     747.563    -332.107
  C     -364.998     745.047    -331.972
  O     -364.023     746.019    -332.320
  O     -365.822     747.698    -332.899
  O     -364.553     748.022    -330.701
  H     -366.504     748.058    -332.296
  H     -364.608     744.068    -332.159
  H     -365.879     745.199    -332.560
  H     -365.241     745.142    -330.934

 6  7  8  9  10  11  12  13  14  15  25  28  32  33  34  35 0
 6-311+G(2d,p)
 ****
 36  39  40 0
 6-311+G(2d,p)
 ****
 1  2  3  4  5  16  17  18  19  20  21  22  23  24 0
 3-21G
 ****
 26  27  29  30  31  37  38  41  42  43  44  45  46  47  48 0
 3-21G
 ****


