%nproc=1
%NoSave
%Mem=1900MB
#P OB98/GEN NMR

erre ene a

0 1
  C     -236.050     198.273      -0.179
  O     -235.610     198.451       1.156
  P     -236.489     197.917       2.391
  C     -234.588     198.448       4.056
  O     -235.930     198.704       3.672
  C     -234.123     199.496       5.062
  O     -233.906     200.752       4.382
  C     -235.123     199.797       6.168
  O     -235.123     198.772       7.151
  C     -234.627     201.159       6.647
  O     -233.498     201.000       7.516
  C     -234.184     201.816       5.321
  N     -235.177     202.741       4.785
  C     -234.882     204.106       4.901
  O     -233.827     204.485       5.415
  N     -235.772     205.016       4.391
  C     -236.872     204.607       3.839
  N     -237.688     205.552       3.288
  C     -237.249     203.184       3.749
  C     -236.363     202.318       4.234
  O     -236.533     196.429       2.536
  O     -237.929     198.583       2.179
  H     -233.779     200.432       8.252
  H     -238.533     198.042       1.614
  H     -238.185     202.893       3.293
  H     -236.553     201.252       4.186
  H     -233.237     202.353       5.462
  H     -235.386     201.736       7.189
  H     -236.131     199.901       5.755
  H     -233.165     199.168       5.487
  H     -237.309     206.487       3.214
  H     -233.952     198.497       3.167
  H     -238.394     205.305       2.606
  H     -234.517     197.439       4.481
  P     -236.520     198.429       7.861
  C     -235.176     196.757       9.321
  O     -236.143     197.792       9.286
  O     -237.071     197.188       7.002
  O     -237.493     199.561       7.896
  H     -237.756     197.489       6.377
  H     -234.868     196.608      10.359
  H     -234.301     197.024       8.722
  H     -235.613     195.825       8.950
  H     -235.331     198.694      -0.851
  H     -236.992     198.762      -0.312
  H     -236.159     197.228      -0.382

 3  4  5  6  7  8  9  10  11  12  13  23  27  28  29  30  32 0
 6-311+G(2d,p)
 ****
 34  35 0
 6-311+G(2d,p)
 ****
 1  2  14  15  16  17  18  19  20  21  22  24  25  26 0
 3-21G
 ****
 31  33  36  37  38  39  40  41  42  43  44  45  46 0
 3-21G
 ****


