%nproc=1
%NoSave
%Mem=1900MB
#P OB98/GEN NMR

erre ene a

0 1
  C     -559.725     464.435     -77.922
  O     -559.600     464.826     -76.567
  H     -559.892     463.356     -77.962
  H     -558.810     464.674     -78.470
  H     -560.576     464.944     -78.382
  P     -559.243     466.368     -76.299
  C     -556.963     467.634     -76.185
  O     -557.644     466.417     -76.456
  C     -555.598     467.622     -76.869
  O     -554.707     466.699     -76.204
  C     -555.637     467.173     -78.326
  O     -556.074     468.192     -79.207
  C     -554.171     466.827     -78.544
  O     -553.411     468.043     -78.695
  C     -553.830     466.120     -77.212
  N     -554.008     464.670     -77.272
  C     -552.871     463.884     -77.037
  O     -551.785     464.412     -76.808
  N     -552.981     462.518     -77.105
  C     -554.130     461.972     -77.372
  N     -554.181     460.616     -77.437
  C     -555.358     462.760     -77.607
  C     -555.227     464.080     -77.544
  O     -559.445     466.533     -74.717
  O     -559.990     467.366     -77.123
  H     -552.497     467.777     -78.904
  H     -559.127     467.425     -74.432
  H     -556.290     462.262     -77.834
  H     -556.084     464.723     -77.706
  H     -552.798     466.333     -76.909
  H     -554.003     466.228     -79.435
  H     -556.230     466.264     -78.453
  H     -555.161     468.625     -76.772
  H     -553.315     460.106     -77.336
  H     -556.843     467.731     -75.103
  H     -554.979     460.117     -77.814
  H     -557.547     468.483     -76.558
  P     -556.477     467.760     -80.703
  C     -556.191     468.861     -83.039
  O     -555.715     468.760     -81.701
  O     -558.004     468.226     -80.809
  O     -556.314     466.306     -81.003
  H     -558.535     467.579     -81.314
  H     -555.588     469.560     -83.580
  H     -557.207     469.197     -83.032
  H     -556.135     467.902     -83.511

 6  7  8  9  10  11  12  13  14  15  16  26  30  31  32  33  35 0
 6-311+G(2d,p)
 ****
 37  38 0
 6-311+G(2d,p)
 ****
 1  2  3  4  5  17  18  19  20  21  22  23  24  25 0
 3-21G
 ****
 27  28  29  34  36  39  40  41  42  43  44  45  46 0
 3-21G
 ****


