%nproc=1
%NoSave
%Mem=1900MB
#P OB98/GEN NMR

erre ene a

0 1
  C     -192.313    -207.324     425.279
  O     -192.061    -208.559     425.928
  H     -191.845    -206.530     425.862
  H     -193.386    -207.136     425.223
  H     -191.878    -207.320     424.274
  P     -192.646    -209.903     425.264
  C     -193.837    -210.974     427.312
  O     -193.974    -210.211     426.120
  C     -195.181    -211.113     428.010
  O     -195.657    -209.847     428.501
  C     -196.311    -211.637     427.132
  O     -196.215    -213.023     426.830
  C     -197.502    -211.313     428.012
  O     -197.585    -212.272     429.083
  C     -197.113    -209.911     428.526
  N     -197.697    -208.825     427.726
  C     -199.022    -208.475     428.020
  O     -199.649    -209.066     428.898
  N     -199.614    -207.478     427.272
  C     -198.958    -206.903     426.312
  N     -199.597    -205.932     425.607
  C     -197.567    -207.263     425.970
  C     -197.001    -208.217     426.700
  O     -191.686    -211.043     425.137
  O     -193.265    -209.421     423.862
  H     -197.817    -213.127     428.688
  H     -193.632    -210.220     423.411
  H     -197.072    -206.773     425.133
  H     -195.981    -208.538     426.496
  H     -197.422    -209.784     429.578
  H     -198.458    -211.349     427.475
  H     -196.389    -211.047     426.201
  H     -195.026    -211.763     428.892
  H     -200.551    -205.707     425.866
  H     -193.103    -210.470     427.957
  H     -199.190    -205.487     424.792
  H     -193.452    -211.977     427.076
  P     -197.079    -213.557     425.579
  C     -198.813    -214.908     426.992
  O     -198.564    -213.812     426.127
  O     -196.481    -215.030     425.331
  O     -197.004    -212.702     424.343
  H     -195.828    -215.020     424.610
  H     -199.850    -214.925     427.257
  H     -198.221    -214.805     427.877
  H     -198.557    -215.820     426.495

 6  7  8  9  10  11  12  13  14  15  16  26  30  31  32  33  35 0
 6-311+G(2d,p)
 ****
 37  38 0
 6-311+G(2d,p)
 ****
 1  2  3  4  5  17  18  19  20  21  22  23  24  25 0
 3-21G
 ****
 27  28  29  34  36  39  40  41  42  43  44  45  46 0
 3-21G
 ****


