%nproc=1
%NoSave
%Mem=1900MB
#P OB98/GEN NMR

erre ene a

0 1
  C       41.473     -98.493    -126.401
  O       40.979     -99.141    -127.555
  H       40.877     -97.595    -126.221
  H       42.515     -98.199    -126.549
  H       41.390     -99.153    -125.535
  P       41.756    -100.460    -128.034
  C       43.956    -100.864    -129.355
  O       43.205     -99.984    -128.530
  C       45.326    -100.258    -129.634
  O       46.194    -100.458    -128.496
  C       46.055    -100.886    -130.814
  O       45.572    -100.412    -132.058
  C       47.484    -100.455    -130.533
  O       47.740     -99.129    -131.021
  C       47.548    -100.499    -128.991
  N       48.273    -101.667    -128.503
  C       49.486    -101.929    -129.133
  O       49.937    -101.235    -130.043
  N       50.153    -103.044    -128.705
  C       49.716    -103.923    -127.758
  O       50.328    -104.944    -127.472
  C       48.434    -103.587    -127.117
  C       47.776    -102.497    -127.519
  O       40.999    -100.854    -129.388
  O       41.768    -101.579    -127.048
  H       40.394    -101.601    -129.225
  H       48.636     -98.892    -130.711
  H       51.029    -103.256    -129.156
  H       48.061    -104.261    -126.356
  H       46.819    -102.241    -127.075
  H       48.051     -99.603    -128.604
  H       48.205    -101.114    -131.017
  H       45.997    -101.980    -130.757
  H       45.204     -99.177    -129.787
  H       43.430    -101.012    -130.304
  H       44.051    -101.830    -128.850
  P       45.632    -101.391    -133.326
  C       47.577    -102.017    -134.977
  O       47.183    -101.563    -133.696
  O       45.060    -100.441    -134.478
  O       44.889    -102.668    -133.134
  H       45.326     -99.512    -134.371
  H       48.645    -102.064    -135.026
  H       47.216    -101.340    -135.722
  H       47.169    -102.990    -135.152

 6  7  8  9  10  11  12  13  14  15  16  27  31  32  33  34  35 0
 6-311+G(2d,p)
 ****
 36  37 0
 6-311+G(2d,p)
 ****
 1  2  3  4  5  17  18  19  20  21  22  23  24  25 0
 3-21G
 ****
 26  28  29  30  38  39  40  41  42  43  44  45 0
 3-21G
 ****


