%nproc=1
%NoSave
%Mem=1900MB
#P OB98/GEN NMR

erre ene a

0 1
  C       44.391    -891.830     502.855
  O       44.645    -892.470     504.090
  H       45.209    -892.050     502.164
  H       44.333    -890.740     502.995
  H       43.459    -892.200     502.419
  P       43.607    -892.190     505.284
  C       43.434    -892.930     507.768
  O       44.002    -893.170     506.482
  C       43.879    -894.020     508.733
  O       43.478    -895.310     508.229
  C       45.390    -894.110     508.916
  O       45.884    -893.130     509.812
  C       45.521    -895.520     509.486
  O       45.313    -895.550     510.901
  C       44.412    -896.290     508.744
  N       44.954    -897.130     507.687
  C       45.526    -898.340     508.114
  O       45.570    -898.680     509.296
  N       46.068    -899.120     507.137
  C       46.144    -898.810     505.807
  O       46.702    -899.530     504.987
  C       45.548    -897.520     505.415
  C       44.993    -896.750     506.361
  O       42.241    -892.800     504.726
  O       43.468    -890.750     505.667
  H       41.635    -892.070     504.463
  H       44.523    -895.000     511.075
  H       46.484    -900.000     507.423
  H       45.592    -897.240     504.371
  H       44.546    -895.790     506.099
  H       43.857    -896.930     509.445
  H       46.518    -895.920     509.294
  H       45.887    -894.070     507.946
  H       43.381    -893.860     509.699
  H       42.341    -892.940     507.698
  H       43.746    -891.940     508.118
  P       47.440    -893.220     510.217
  C       49.261    -891.420     510.799
  O       47.948    -891.700     510.359
  O       48.082    -893.730     508.853
  O       47.692    -894.090     511.404
  H       47.546    -893.460     508.073
  H       49.409    -890.361     510.828
  H       49.965    -891.860     510.124
  H       49.403    -891.827     511.778

 6  7  8  9  10  11  12  13  14  15  16  27  31  32  33  34  35 0
 6-311+G(2d,p)
 ****
 36  37 0
 6-311+G(2d,p)
 ****
 1  2  3  4  5  17  18  19  20  21  22  23  24  25 0
 3-21G
 ****
 26  28  29  30  38  39  40  41  42  43  44  45 0
 3-21G
 ****


