%nproc=1
%NoSave
%Mem=1900MB
#P OB98/GEN NMR

erre ene a

0 1
  C       26.197     170.743     -25.876
  O       26.178     172.094     -26.329
  P       26.684     172.411     -27.815
  C       24.553     173.433     -29.007
  O       25.454     172.360     -28.831
  C       24.222     173.576     -30.502
  O       25.408     173.929     -31.249
  C       23.668     172.298     -31.121
  O       22.268     172.192     -30.960
  C       24.100     172.439     -32.568
  O       23.233     173.353     -33.266
  C       25.511     173.051     -32.405
  N       26.652     172.131     -32.203
  C       26.710     170.932     -32.908
  O       25.856     170.560     -33.713
  N       27.808     170.145     -32.672
  C       28.915     170.498     -31.958
  O       29.896     169.780     -31.829
  C       28.869     171.835     -31.355
  C       27.764     172.570     -31.491
  O       27.553     171.127     -28.202
  O       27.470     173.679     -27.944
  H       22.320     173.127     -33.020
  H       28.489     171.371     -28.331
  H       27.832     169.243     -33.122
  H       29.745     172.178     -30.817
  H       27.717     173.561     -31.045
  H       25.763     173.677     -33.271
  H       24.026     171.490     -33.097
  H       24.178     171.423     -30.704
  H       23.496     174.390     -30.621
  H       24.981     174.366     -28.632
  H       23.641     173.246     -28.434
  P       21.646     170.963     -30.140
  C       20.765     172.763     -28.539
  O       21.415     171.510     -28.649
  O       22.383     169.667     -30.244
  O       20.151     170.850     -30.703
  H       20.095     170.172     -31.412
  H       20.527     172.946     -27.486
  H       19.835     172.762     -29.117
  H       21.423     173.558     -28.892
  H       25.831     170.699     -24.871
  H       27.199     170.370     -25.908
  H       25.574     170.146     -26.509

 3  4  5  6  7  8  9  10  11  12  13  23  28  29  30  31  32 0
 6-311+G(2d,p)
 ****
 33  34 0
 6-311+G(2d,p)
 ****
 1  2  14  15  16  17  18  19  20  21  22  24  25  26  27 0
 3-21G
 ****
 35  36  37  38  39  40  41  42  43  44  45 0
 3-21G
 ****


