%nproc=1
%NoSave
%Mem=1900MB
#P OB98/GEN NMR

erre ene a

0 1
  C       27.823    -969.865     536.417
  O       26.673    -970.339     535.758
  H       28.459    -969.340     535.697
  H       28.386    -970.698     536.837
  H       27.558    -969.165     537.213
  P       25.520    -971.001     536.659
  C       23.972    -968.910     536.440
  O       24.692    -969.777     537.322
  C       23.646    -967.604     537.155
  O       24.889    -966.938     537.527
  C       22.832    -966.617     536.283
  O       21.878    -965.966     537.125
  C       23.874    -965.615     535.808
  O       23.303    -964.348     535.469
  C       24.850    -965.602     536.988
  N       26.172    -965.157     536.569
  C       26.371    -963.760     536.448
  O       25.448    -962.988     536.686
  N       27.588    -963.295     536.026
  C       28.508    -964.140     535.653
  N       29.675    -963.622     535.196
  C       28.319    -965.606     535.691
  C       27.158    -966.043     536.157
  O       26.317    -971.600     537.904
  O       24.677    -972.018     535.968
  H       23.999    -963.824     534.987
  H       25.887    -972.406     538.254
  H       29.096    -966.277     535.338
  H       26.923    -967.097     536.219
  H       24.487    -964.938     537.769
  H       24.361    -966.003     534.903
  H       22.308    -967.117     535.452
  H       23.107    -967.830     538.087
  H       29.768    -962.610     535.167
  H       23.039    -969.393     536.140
  H       30.447    -964.179     534.832
  H       24.581    -968.727     535.539
  P       20.369    -966.527     537.114
  C       20.461    -967.106     539.648
  O       20.221    -967.562     538.323
  O       20.342    -967.453     535.801
  O       19.322    -965.444     537.053
  H       19.810    -967.036     535.105
  H       20.321    -967.915     540.334
  H       19.778    -966.317     539.883
  H       21.465    -966.743     539.724

 6  7  8  9  10  11  12  13  14  15  16  26  30  31  32  33  35 0
 6-311+G(2d,p)
 ****
 37  38 0
 6-311+G(2d,p)
 ****
 1  2  3  4  5  17  18  19  20  21  22  23  24  25 0
 3-21G
 ****
 27  28  29  34  36  39  40  41  42  43  44  45  46 0
 3-21G
 ****


