%nproc=1
%NoSave
%Mem=1900MB
#P OB98/GEN NMR

erre ene a

0 1
  C      127.492     171.206     256.204
  O      128.472     172.093     256.705
  H      127.369     170.381     256.913
  H      127.815     170.799     255.242
  H      126.534     171.720     256.089
  P      128.685     173.463     255.904
  C      128.137     175.406     257.584
  O      127.686     174.549     256.542
  C      127.409     175.071     258.884
  O      127.629     173.699     259.266
  C      127.898     175.864     260.085
  O      127.512     177.219     260.039
  C      127.255     175.075     261.215
  O      125.868     175.413     261.359
  C      127.413     173.622     260.702
  N      128.489     172.908     261.373
  C      128.159     171.646     261.884
  O      127.020     171.199     261.743
  N      129.120     170.940     262.563
  C      130.308     171.434     262.701
  N      131.212     170.688     263.392
  C      130.707     172.747     262.155
  C      129.756     173.425     261.515
  O      128.010     173.150     254.489
  O      130.098     173.941     255.823
  H      125.489     174.760     261.978
  H      127.096     172.826     254.557
  H      131.714     173.114     262.287
  H      129.964     174.395     261.087
  H      126.483     173.057     260.852
  H      127.730     175.273     262.177
  H      128.988     175.767     260.185
  H      126.334     175.214     258.718
  H      130.898     169.803     263.770
  H      127.988     176.456     257.317
  H      132.156     170.984     263.591
  H      129.214     175.245     257.701
  P      128.618     178.381     260.007
  C      127.398     179.663     258.138
  O      128.591     178.986     258.520
  O      129.971     177.984     260.491
  O      127.940     179.555     260.862
  H      127.094     179.881     260.507
  H      127.496     180.020     257.134
  H      127.231     180.490     258.796
  H      126.570     178.988     258.197

 6  7  8  9  10  11  12  13  14  15  16  26  30  31  32  33  35 0
 6-311+G(2d,p)
 ****
 37  38 0
 6-311+G(2d,p)
 ****
 1  2  3  4  5  17  18  19  20  21  22  23  24  25 0
 3-21G
 ****
 27  28  29  34  36  39  40  41  42  43  44  45  46 0
 3-21G
 ****


