%nproc=1
%NoSave
%Mem=1900MB
#P OB98/GEN NMR

erre ene a

0 1
  C       -5.043     269.274     248.645
  O       -5.164     269.745     249.975
  H       -4.132     268.673     248.566
  H       -4.968     270.107     247.940
  H       -5.900     268.647     248.385
  P       -6.341     270.779     250.306
  C       -7.244     272.674     248.791
  O       -6.096     272.035     249.342
  C       -6.882     273.345     247.468
  O       -6.584     272.350     246.467
  C       -8.018     274.183     246.893
  O       -8.139     275.409     247.589
  C       -7.585     274.290     245.444
  O       -6.581     275.297     245.272
  C       -7.003     272.881     245.190
  N       -7.960     271.985     244.542
  C       -8.236     272.251     243.199
  O       -7.686     273.191     242.621
  N       -9.151     271.457     242.545
  C       -9.721     270.480     243.177
  N      -10.615     269.733     242.476
  C       -9.448     270.155     244.587
  C       -8.569     270.944     245.204
  O       -6.541     271.138     251.747
  O       -7.641     270.086     249.676
  H       -5.771     274.943     245.690
  H       -8.070     269.507     250.332
  H       -9.942     269.324     245.072
  H       -8.308     270.772     246.244
  H       -6.111     272.938     244.559
  H       -8.424     274.543     244.796
  H       -8.958     273.621     246.931
  H       -5.981     273.953     247.625
  H      -10.779     269.997     241.508
  H       -7.576     273.422     249.516
  H      -11.054     268.896     242.832
  H       -8.054     271.949     248.639
  P       -9.373     276.394     247.292
  C      -10.518     276.982     245.055
  O       -9.286     276.722     245.719
  O       -9.474     277.577     248.190
  O      -10.643     275.420     247.379
  H      -10.852     275.180     248.316
  H      -10.330     277.185     244.021
  H      -10.993     277.829     245.504
  H      -11.156     276.128     245.140

 6  7  8  9  10  11  12  13  14  15  16  26  30  31  32  33  35 0
 6-311+G(2d,p)
 ****
 37  38 0
 6-311+G(2d,p)
 ****
 1  2  3  4  5  17  18  19  20  21  22  23  24  25 0
 3-21G
 ****
 27  28  29  34  36  39  40  41  42  43  44  45  46 0
 3-21G
 ****


