%nproc=1
%NoSave
%Mem=1900MB
#P OB98/GEN NMR

erre ene a

0 1
  C      123.027     109.946     312.543
  O      123.078     109.672     313.927
  H      124.044     110.119     312.182
  H      122.434     110.849     312.369
  H      122.594     109.112     311.987
  P      121.790     109.035     314.632
  C      119.814     109.928     316.036
  O      120.912     110.257     315.199
  C      118.937     111.149     316.305
  O      119.638     112.075     317.171
  C      118.651     111.910     314.996
  O      117.409     112.601     315.034
  C      119.778     112.921     314.941
  O      119.490     114.039     314.104
  C      119.944     113.266     316.420
  N      122.924     117.283     317.391
  C      121.615     117.258     316.949
  N      121.025     118.454     316.713
  N      120.946     116.152     316.740
  C      121.680     115.026     316.948
  C      122.993     114.934     317.358
  C      123.707     116.167     317.626
  O      124.868     116.255     318.007
  N      123.399     113.621     317.437
  C      122.340     112.924     317.065
  N      121.268     113.737     316.768
  O      122.377     108.384     315.976
  O      121.030     108.031     313.821
  H      119.278     113.694     313.218
  H      121.800     107.660     316.283
  H      123.384     118.169     317.551
  H      122.297     111.849     317.000
  H      119.228     114.050     316.712
  H      120.669     112.422     314.521
  H      121.551     119.313     316.693
  H      118.662     111.244     314.129
  H      120.190     118.446     316.120
  H      118.019     110.862     316.826
  H      120.223     109.548     316.975
  H      119.225     109.123     315.583
  P      116.142     111.907     314.324
  C      115.310     111.614     311.849
  O      116.291     112.120     312.745
  O      114.912     112.841     314.733
  O      115.936     110.484     314.741
  H      114.375     112.414     315.412
  H      115.586     111.856     310.844
  H      114.361     112.054     312.074
  H      115.245     110.551     311.955

 6  7  8  9  10  11  12  13  14  15  26  29  33  34 0
 6-311+G(2d,p)
 ****
 36  38  39  40  41 0
 6-311+G(2d,p)
 ****
 1  2  3  4  5  16  17  18  19  20  21  22  23  24  25 0
 3-21G
 ****
 27  28  30  31  32  35  37  42  43  44  45  46  47 0
 3-21G
 ****
 48  49 0
 3-21G
 ****


