%nproc=1
%NoSave
%Mem=1900MB
#P OB98/GEN NMR

erre ene a

0 1
  C        1.452     -47.438     -48.119
  O        1.715     -47.715     -46.762
  P        2.469     -49.055     -46.315
  C        1.991     -51.576     -46.560
  O        1.435     -50.267     -46.544
  C        1.064     -52.539     -47.311
  O        1.046     -52.163     -48.723
  C        1.524     -54.008     -47.219
  O        0.516     -54.916     -46.772
  C        2.075     -54.276     -48.611
  O        2.135     -55.648     -48.951
  C        1.176     -53.385     -49.476
  N        1.727     -53.163     -50.811
  C        1.830     -54.271     -51.648
  O        1.481     -55.408     -51.342
  N        2.418     -54.051     -52.863
  C        3.005     -52.891     -53.271
  O        3.603     -52.792     -54.334
  C        2.901     -51.766     -52.327
  C        2.259     -51.940     -51.171
  O        3.084     -49.022     -44.958
  O        3.521     -49.291     -47.502
  H        1.227     -56.006     -48.915
  H        3.125     -49.397     -48.385
  H        2.499     -54.845     -53.479
  H        3.368     -50.836     -52.619
  H        2.165     -51.129     -50.456
  H        0.177     -53.810     -49.582
  H        3.104     -53.895     -48.642
  H        2.328     -54.123     -46.482
  H        0.056     -52.414     -46.906
  H        2.109     -51.922     -45.530
  H        2.988     -51.550     -47.013
  P        0.762     -56.149     -45.781
  C        1.937     -58.465     -45.931
  O        1.719     -57.198     -46.518
  O       -0.470     -56.735     -45.177
  O        1.708     -55.531     -44.645
  H        1.554     -56.000     -43.803
  H        2.926     -58.824     -46.232
  H        1.183     -59.167     -46.298
  H        1.894     -58.416     -44.840
  H        0.944     -46.500     -48.200
  H        0.838     -48.213     -48.529
  H        2.375     -47.391     -48.659

 3  4  5  6  7  8  9  10  11  12  13  23  28  29  30  31  32 0
 6-311+G(2d,p)
 ****
 33  34 0
 6-311+G(2d,p)
 ****
 1  2  14  15  16  17  18  19  20  21  22  24  25  26  27 0
 3-21G
 ****
 35  36  37  38  39  40  41  42  43  44  45 0
 3-21G
 ****


