%nproc=1
%NoSave
%Mem=1900MB
#P OB98/GEN NMR

erre ene a

0 1
  C     -329.571     637.693     596.235
  O     -328.478     637.335     597.085
  P     -327.887     635.858     596.878
  C     -327.398     634.982     594.479
  O     -327.009     635.858     595.518
  C     -326.515     635.193     593.238
  O     -326.678     636.504     592.663
  C     -325.026     635.051     593.527
  O     -324.674     633.680     593.588
  C     -324.411     635.784     592.342
  O     -324.307     634.912     591.188
  C     -325.422     636.906     592.076
  N     -321.792     640.455     592.247
  C     -321.752     639.173     591.720
  N     -320.601     638.796     591.137
  N     -322.767     638.346     591.772
  C     -323.858     638.866     592.390
  C     -324.011     640.115     592.926
  C     -322.886     641.018     592.870
  O     -322.870     642.169     593.321
  N     -325.286     640.296     593.409
  C     -325.842     639.107     593.281
  N     -325.043     638.225     592.604
  O     -329.173     634.983     596.513
  O     -327.179     635.319     598.086
  H     -323.715     635.325     590.533
  H     -329.385     634.373     597.243
  H     -320.967     641.044     592.195
  H     -326.845     638.844     593.633
  H     -325.591     637.051     591.002
  H     -323.386     636.124     592.556
  H     -319.779     639.379     591.054
  H     -324.776     635.562     594.468
  H     -320.563     637.862     590.727
  H     -326.817     634.448     592.486
  H     -328.446     635.148     594.216
  H     -327.320     633.947     594.839
  P     -323.914     633.146     594.897
  C     -324.843     631.626     596.791
  O     -325.026     632.785     595.982
  O     -323.228     634.483     595.479
  O     -322.891     632.082     594.637
  H     -322.308     634.277     595.748
  H     -325.340     631.786     597.760
  H     -323.788     631.415     596.960
  H     -325.318     630.763     596.290
  H     -329.884     638.692     596.458
  H     -330.386     637.019     596.399
  H     -329.261     637.636     595.212

 3  4  5  6  7  8  9  10  11  12  23  26  30  31 0
 6-311+G(2d,p)
 ****
 33  35  36  37  38 0
 6-311+G(2d,p)
 ****
 1  2  13  14  15  16  17  18  19  20  21  22  24  25 0
 3-21G
 ****
 27  28  29  32  34  39  40  41  42  43  44  45  46  47  48  49 0
 3-21G
 ****


