%nproc=1
%NoSave
%Mem=1900MB
#P OB98/GEN NMR

erre ene a

0 1
  C     1652.897    -337.597     321.590
  O     1653.257    -337.021     320.331
  P     1653.760    -335.494     320.195
  C     1651.518    -334.330     320.721
  O     1652.475    -334.690     319.716
  C     1650.780    -333.057     320.296
  O     1651.728    -331.976     320.197
  C     1650.081    -333.124     318.940
  O     1648.785    -333.704     318.951
  C     1649.944    -331.618     318.642
  O     1648.828    -331.072     319.365
  C     1651.282    -331.083     319.157
  N     1652.393    -329.009     314.605
  C     1651.308    -328.891     315.420
  N     1651.073    -329.500     316.593
  C     1652.128    -330.233     316.964
  C     1653.316    -330.427     316.266
  C     1653.445    -329.776     315.039
  N     1654.563    -329.860     314.223
  N     1654.186    -331.281     316.968
  C     1653.530    -331.558     318.091
  N     1652.280    -330.959     318.113
  O     1655.015    -335.330     319.412
  O     1653.932    -335.036     321.730
  H     1648.709    -330.172     319.055
  H     1654.485    -334.215     321.761
  H     1650.504    -328.278     315.037
  H     1653.891    -332.210     318.850
  H     1651.166    -330.075     319.618
  H     1649.754    -331.436     317.565
  H     1650.714    -333.574     318.174
  H     1650.056    -332.799     321.091
  H     1652.071    -334.127     321.654
  H     1654.606    -329.237     313.420
  H     1655.394    -330.299     314.620
  H     1650.847    -335.158     320.885
  P     1648.572    -335.041     318.107
  C     1649.148    -334.197     315.677
  O     1648.137    -334.563     316.629
  O     1647.674    -336.054     318.741
  O     1650.078    -335.572     317.885
  H     1650.640    -335.008     317.331
  H     1648.657    -334.062     314.715
  H     1649.890    -334.992     315.604
  H     1649.610    -333.269     315.994
  H     1652.596    -338.613     321.444
  H     1652.088    -337.043     322.017
  H     1653.739    -337.566     322.250

 3  4  5  6  7  8  9  10  11  12  22  25  29  30  31  32 0
 6-311+G(2d,p)
 ****
 33  36  37 0
 6-311+G(2d,p)
 ****
 1  2  13  14  15  16  17  18  19  20  21  23  24  26 0
 3-21G
 ****
 27  28  34  35  38  39  40  41  42  43  44  45  46  47  48 0
 3-21G
 ****


