%nproc=1
%NoSave
%Mem=1900MB
#P OB98/GEN NMR

erre ene a

0 1
  C      875.090      15.487     128.700
  O      875.213      16.029     127.399
  H      875.631      14.539     128.741
  H      874.037      15.303     128.930
  H      875.518      16.171     129.443
  P      874.696      17.526     127.172
  C      875.573      19.657     128.372
  O      875.893      18.497     127.627
  C      876.724      20.664     128.291
  O      877.883      20.098     128.969
  C      877.152      21.011     126.858
  O      877.528      22.391     126.820
  C      878.386      20.152     126.651
  O      879.264      20.639     125.646
  C      878.997      20.183     128.056
  N      879.942      19.092     128.279
  C      881.127      19.112     127.546
  O      881.468      20.021     126.792
  N      881.943      18.020     127.708
  C      881.683      16.930     128.491
  O      882.445      15.974     128.573
  C      880.414      16.965     129.232
  C      879.619      18.023     129.093
  O      873.607      17.712     128.330
  O      874.143      17.815     125.812
  H      872.726      17.438     128.017
  H      878.721      20.845     124.859
  H      882.802      18.017     127.184
  H      880.170      16.108     129.856
  H      878.662      18.070     129.612
  H      879.494      21.148     128.234
  H      878.088      19.130     126.377
  H      876.383      20.818     126.103
  H      876.438      21.573     128.840
  H      875.410      19.390     129.419
  H      874.651      20.101     127.974
  P      876.531      23.412     126.079
  C      874.822      25.164     127.014
  O      875.564      23.969     127.227
  O      875.620      22.398     125.244
  O      877.248      24.441     125.269
  H      875.455      21.556     125.713
  H      874.236      25.380     127.883
  H      874.176      25.037     126.171
  H      875.496      25.974     126.828

 6  7  8  9  10  11  12  13  14  15  16  27  31  32  33  34  35 0
 6-311+G(2d,p)
 ****
 36  37 0
 6-311+G(2d,p)
 ****
 1  2  3  4  5  17  18  19  20  21  22  23  24  25 0
 3-21G
 ****
 26  28  29  30  38  39  40  41  42  43  44  45 0
 3-21G
 ****


