%nproc=1
%NoSave
%Mem=1900MB
#P OB98/GEN NMR

erre ene a

0 1
  C     -298.829    -421.984    -127.535
  O     -298.645    -423.193    -126.826
  P     -297.854    -424.421    -127.505
  C     -299.964    -425.891    -127.247
  O     -298.563    -425.763    -126.975
  C     -300.368    -427.357    -127.196
  O     -299.782    -428.102    -128.292
  C     -299.904    -428.095    -125.949
  O     -300.453    -427.693    -124.711
  C     -300.102    -429.538    -126.353
  O     -301.470    -429.935    -126.206
  C     -299.729    -429.494    -127.857
  N     -298.409    -430.080    -128.111
  C     -298.286    -431.435    -127.856
  O     -299.211    -432.144    -127.444
  N     -297.040    -431.979    -128.071
  C     -295.926    -431.292    -128.451
  O     -294.826    -431.840    -128.575
  C     -296.119    -429.854    -128.692
  C     -297.326    -429.324    -128.519
  O     -296.366    -424.390    -127.344
  O     -298.326    -424.374    -129.035
  H     -301.998    -429.379    -126.817
  H     -299.299    -424.468    -129.171
  H     -296.937    -432.966    -127.877
  H     -295.244    -429.285    -129.019
  H     -297.492    -428.248    -128.696
  H     -300.465    -430.037    -128.466
  H     -299.503    -430.228    -125.760
  H     -298.821    -427.933    -125.846
  H     -301.452    -427.416    -127.313
  H     -300.157    -425.498    -128.236
  H     -300.536    -425.289    -126.535
  P     -299.546    -427.181    -123.475
  C     -299.827    -428.857    -121.515
  O     -300.255    -427.648    -122.125
  O     -299.050    -425.766    -123.542
  O     -298.301    -428.181    -123.554
  H     -297.505    -427.716    -123.237
  H     -300.437    -429.040    -120.632
  H     -298.780    -428.776    -121.190
  H     -299.959    -429.698    -122.194
  H     -299.372    -421.292    -126.926
  H     -299.379    -422.177    -128.433
  H     -297.875    -421.567    -127.783

 3  4  5  6  7  8  9  10  11  12  13  23  28  29  30  31  32 0
 6-311+G(2d,p)
 ****
 33  34 0
 6-311+G(2d,p)
 ****
 1  2  14  15  16  17  18  19  20  21  22  24  25  26  27 0
 3-21G
 ****
 35  36  37  38  39  40  41  42  43  44  45 0
 3-21G
 ****


