%nproc=1
%NoSave
%Mem=1900MB
#P OB98/GEN NMR

erre ene a

0 1
  C       54.245    -667.170     -20.592
  O       53.406    -666.125     -21.076
  P       53.420    -664.716     -20.310
  C       51.525    -664.964     -18.572
  O       51.931    -664.388     -19.814
  C       50.011    -664.786     -18.365
  O       49.710    -663.367     -18.316
  C       49.127    -665.358     -19.488
  O       48.717    -666.719     -19.387
  C       47.871    -664.509     -19.339
  O       47.029    -665.059     -18.307
  C       48.402    -663.148     -18.900
  N       46.244    -659.049     -21.070
  C       45.913    -659.772     -19.977
  N       46.542    -660.850     -19.467
  C       47.629    -661.161     -20.196
  C       48.092    -660.513     -21.333
  C       47.341    -659.405     -21.774
  N       47.677    -658.672     -22.886
  N       49.233    -661.124     -21.810
  C       49.435    -662.130     -20.988
  N       48.507    -662.190     -19.986
  O       54.127    -663.603     -21.013
  O       54.161    -665.079     -18.938
  H       46.837    -665.979     -18.572
  H       54.732    -664.333     -18.678
  H       45.025    -659.446     -19.445
  H       50.246    -662.846     -21.084
  H       47.775    -662.682     -18.130
  H       47.272    -664.492     -20.254
  H       49.585    -665.183     -20.470
  H       49.727    -665.231     -17.408
  H       52.064    -664.488     -17.756
  H       47.060    -657.922     -23.164
  H       48.460    -658.966     -23.455
  H       51.831    -666.010     -18.589
  P       49.510    -667.888     -20.139
  C       47.323    -668.321     -21.509
  O       48.382    -668.854     -20.754
  O       50.539    -668.585     -19.316
  O       50.087    -667.147     -21.432
  H       49.407    -666.872     -22.077
  H       46.794    -669.141     -22.006
  H       47.690    -667.627     -22.266
  H       46.614    -667.807     -20.845
  H       54.123    -668.038     -21.205
  H       53.976    -667.405     -19.583
  H       55.266    -666.852     -20.624

 3  4  5  6  7  8  9  10  11  12  22  25  29  30  31  32 0
 6-311+G(2d,p)
 ****
 33  36  37 0
 6-311+G(2d,p)
 ****
 1  2  13  14  15  16  17  18  19  20  21  23  24  26 0
 3-21G
 ****
 27  28  34  35  38  39  40  41  42  43  44  45  46  47  48 0
 3-21G
 ****


