%nproc=1
%NoSave
%Mem=1900MB
#P OB98/GEN NMR

erre ene a

0 1
  C      401.729     -33.170     -11.720
  O      402.257     -32.456     -12.839
  P      402.818     -33.298     -14.085
  C      404.829     -34.831     -14.602
  O      404.087     -34.151     -13.597
  C      406.342     -34.651     -14.381
  O      406.677     -33.248     -14.550
  C      406.839     -35.033     -12.982
  O      407.240     -36.378     -12.746
  C      408.104     -34.180     -12.873
  O      409.204     -34.851     -13.518
  C      407.752     -32.913     -13.649
  N      409.367     -29.550     -10.138
  C      410.011     -30.527     -10.818
  N      409.506     -31.378     -11.736
  C      408.198     -31.142     -11.940
  C      407.411     -30.182     -11.321
  C      408.047     -29.359     -10.376
  N      407.388     -28.373      -9.672
  N      406.112     -30.247     -11.782
  C      406.110     -31.242     -12.650
  N      407.351     -31.806     -12.791
  O      403.006     -32.537     -15.353
  O      401.698     -34.436     -14.264
  H      409.029     -34.811     -14.476
  H      401.574     -34.610     -15.220
  H      411.070     -30.639     -10.597
  H      405.244     -31.586     -13.195
  H      408.590     -32.549     -14.259
  H      408.406     -34.012     -11.836
  H      406.117     -34.722     -12.212
  H      406.888     -35.228     -15.143
  H      404.554     -34.446     -15.587
  H      407.913     -27.859      -8.980
  H      406.395     -28.259      -9.795
  H      404.525     -35.885     -14.582
  P      406.382     -37.346     -11.801
  C      405.578     -37.175      -9.311
  O      406.344     -36.629     -10.366
  O      406.839     -38.768     -11.766
  O      404.890     -37.144     -12.344
  H      404.519     -36.261     -12.170
  H      405.854     -36.669      -8.381
  H      405.772     -38.248      -9.204
  H      404.513     -37.002      -9.505
  H      401.398     -32.475     -10.977
  H      402.490     -33.798     -11.306
  H      400.904     -33.772     -12.038

 3  4  5  6  7  8  9  10  11  12  22  25  29  30  31  32 0
 6-311+G(2d,p)
 ****
 33  36  37 0
 6-311+G(2d,p)
 ****
 1  2  13  14  15  16  17  18  19  20  21  23  24  26 0
 3-21G
 ****
 27  28  34  35  38  39  40  41  42  43  44  45  46  47  48 0
 3-21G
 ****


