%nproc=1
%NoSave
%Mem=1900MB
#P OB98/GEN NMR

erre ene a

0 1
  C      141.453     323.834     211.129
  O      141.378     323.951     209.726
  H      142.346     324.358     211.477
  H      141.535     322.779     211.405
  H      140.577     324.273     211.615
  P      139.974     323.688     209.006
  C      140.733     321.283     208.451
  O      139.706     322.103     208.997
  C      140.919     319.998     209.258
  O      141.140     320.327     210.648
  C      139.689     319.089     209.210
  O      139.658     318.200     208.107
  C      139.808     318.323     210.526
  O      140.610     317.143     210.372
  C      140.502     319.328     211.456
  N      136.883     318.692     215.011
  C      137.425     317.758     214.150
  N      136.906     316.512     214.225
  N      138.369     318.034     213.289
  C      138.714     319.341     213.260
  C      138.233     320.361     214.053
  C      137.241     320.034     215.051
  O      136.742     320.820     215.847
  N      138.788     321.570     213.707
  C      139.538     321.293     212.657
  N      139.586     319.941     212.399
  O      140.285     323.993     207.461
  O      138.831     324.527     209.492
  H      140.517     316.609     211.188
  H      139.483     324.341     207.031
  H      136.181     318.415     215.670
  H      140.094     322.017     212.079
  H      141.289     318.844     212.047
  H      138.826     317.996     210.875
  H      136.123     316.267     214.808
  H      138.769     319.681     209.242
  H      137.140     315.849     213.486
  H      141.818     319.475     208.906
  H      141.647     321.875     208.473
  H      140.516     321.050     207.404
  P      138.456     318.240     207.055
  C      137.826     315.818     207.850
  O      137.407     317.103     207.443
  O      139.130     317.678     205.715
  O      137.829     319.580     206.847
  H      139.383     318.409     205.125
  H      136.969     315.214     208.062
  H      138.430     315.902     208.729
  H      138.397     315.364     207.067

 6  7  8  9  10  11  12  13  14  15  26  29  33  34 0
 6-311+G(2d,p)
 ****
 36  38  39  40  41 0
 6-311+G(2d,p)
 ****
 1  2  3  4  5  16  17  18  19  20  21  22  23  24  25 0
 3-21G
 ****
 27  28  30  31  32  35  37  42  43  44  45  46  47 0
 3-21G
 ****
 48  49 0
 3-21G
 ****


