%nproc=1
%NoSave
%Mem=1900MB
#P OB98/GEN NMR

erre ene a

0 1
  C       77.588    -332.011    -265.436
  O       78.956    -331.884    -265.035
  P       79.843    -333.222    -265.001
  C       80.588    -333.114    -262.499
  O       80.950    -332.987    -263.862
  C       81.585    -332.369    -261.600
  O       82.771    -333.193    -261.388
  C       82.050    -331.016    -262.155
  O       82.184    -330.130    -261.033
  C       83.412    -331.337    -262.742
  O       84.227    -330.178    -262.862
  C       83.912    -332.382    -261.738
  N       85.005    -333.194    -262.264
  C       86.237    -333.078    -261.628
  O       86.448    -332.280    -260.717
  N       87.236    -333.882    -262.110
  C       87.143    -334.714    -263.185
  O       88.074    -335.413    -263.576
  C       85.852    -334.708    -263.889
  C       84.861    -333.959    -263.402
  O       80.651    -333.100    -266.374
  O       79.021    -334.462    -264.855
  H       80.905    -332.189    -266.597
  H       85.095    -330.435    -263.238
  H       88.127    -333.837    -261.642
  H       85.759    -335.309    -264.785
  H       83.904    -333.915    -263.908
  H       84.256    -331.891    -260.817
  H       83.292    -331.784    -263.736
  H       81.351    -330.591    -262.881
  H       81.113    -332.223    -260.621
  H       80.581    -334.172    -262.212
  H       79.571    -332.738    -262.358
  P       80.963    -329.138    -260.696
  C       81.383    -327.260    -262.470
  O       81.421    -327.662    -261.122
  O       81.068    -329.102    -259.096
  O       79.625    -329.594    -261.177
  H       81.977    -328.960    -258.774
  H       81.505    -326.173    -262.514
  H       80.432    -327.522    -262.934
  H       82.206    -327.726    -263.021
  H       77.119    -331.050    -265.414
  H       77.080    -332.672    -264.765
  H       77.543    -332.407    -266.429

 3  4  5  6  7  8  9  10  11  12  13  24  28  29  30  31  32 0
 6-311+G(2d,p)
 ****
 33  34 0
 6-311+G(2d,p)
 ****
 1  2  14  15  16  17  18  19  20  21  22  23  25  26  27 0
 3-21G
 ****
 35  36  37  38  39  40  41  42  43  44  45 0
 3-21G
 ****


