%nproc=1
%NoSave
%Mem=1900MB
#P OB98/GEN NMR

erre ene a

0 1
  C       98.260     231.555     422.884
  O       97.806     230.354     423.471
  H       97.457     232.297     422.938
  H       98.520     231.392     421.834
  H       99.129     231.939     423.429
  P       98.829     229.118     423.465
  C       97.560     227.691     425.213
  O       97.929     227.846     423.849
  C       97.021     226.288     425.467
  O       95.714     226.135     424.878
  C       97.879     225.167     424.890
  O       98.951     224.856     425.770
  C       96.871     224.032     424.814
  O       96.735     223.415     426.109
  C       95.571     224.759     424.438
  N       93.402     222.112     420.604
  C       93.732     221.756     421.865
  N       94.353     222.493     422.811
  C       94.636     223.724     422.349
  C       94.364     224.225     421.084
  C       93.709     223.361     420.192
  N       93.381     223.725     418.896
  N       94.803     225.527     420.966
  C       95.278     225.825     422.159
  N       95.229     224.758     423.020
  O      100.077     229.306     424.261
  O       99.054     228.919     421.891
  H       96.487     224.121     426.733
  H       98.213     229.025     421.409
  H       93.461     220.742     422.155
  H       95.642     226.803     422.465
  H       94.707     224.340     424.968
  H       97.177     223.243     424.121
  H       98.235     225.405     423.875
  H       96.899     226.157     426.557
  H       96.798     228.435     425.487
  H       93.098     222.990     418.273
  H       93.727     224.608     418.554
  H       98.449     227.871     425.822
  P      100.476     225.008     425.309
  C      101.675     225.908     427.400
  O      101.338     224.753     426.648
  O      100.777     226.263     424.568
  O      100.768     223.691     424.447
  H      101.568     223.810     423.901
  H      102.243     225.620     428.260
  H      100.780     226.404     427.713
  H      102.257     226.571     426.794

 6  7  8  9  10  11  12  13  14  15  25  28  32  33  34  35 0
 6-311+G(2d,p)
 ****
 36  39  40 0
 6-311+G(2d,p)
 ****
 1  2  3  4  5  16  17  18  19  20  21  22  23  24 0
 3-21G
 ****
 26  27  29  30  31  37  38  41  42  43  44  45  46  47 0
 3-21G
 ****
 48 0
 3-21G
 ****


