%nproc=1
%NoSave
%Mem=1900MB
#P OB98/GEN NMR

erre ene a

0 1
  C     -191.968     515.823    -209.753
  O     -192.806     515.372    -210.802
  H     -192.191     516.875    -209.548
  H     -190.921     515.738    -210.050
  H     -192.145     515.240    -208.843
  P     -192.798     513.796    -211.092
  C     -193.704     513.138    -208.719
  O     -192.655     513.046    -209.673
  C     -194.519     511.845    -208.714
  O     -193.667     510.698    -208.517
  C     -195.526     511.742    -207.581
  O     -196.639     512.592    -207.762
  C     -195.872     510.262    -207.642
  O     -196.891     509.996    -208.612
  C     -194.528     509.625    -208.067
  N     -193.934     508.852    -206.990
  C     -194.698     507.756    -206.547
  O     -195.777     507.502    -207.083
  N     -194.228     507.013    -205.497
  C     -193.117     507.342    -204.917
  N     -192.726     506.583    -203.857
  C     -192.280     508.487    -205.349
  C     -192.750     509.191    -206.384
  O     -191.362     513.577    -211.767
  O     -193.941     513.304    -211.918
  H     -196.892     509.026    -208.759
  H     -190.632     513.986    -211.273
  H     -191.357     508.711    -204.840
  H     -192.202     510.049    -206.769
  H     -194.672     508.957    -208.931
  H     -196.249     509.895    -206.678
  H     -195.031     511.937    -206.619
  H     -195.014     511.745    -209.692
  H     -193.351     505.844    -203.552
  H     -194.352     513.994    -208.937
  H     -191.922     506.793    -203.281
  H     -193.252     513.305    -207.739
  P     -197.552     513.045    -206.529
  C     -196.267     515.276    -206.372
  O     -196.687     514.105    -205.677
  O     -198.134     511.930    -205.720
  O     -198.654     513.989    -207.217
  H     -198.291     514.765    -207.682
  H     -195.705     515.901    -205.710
  H     -197.125     515.809    -206.723
  H     -195.655     514.997    -207.204

 6  7  8  9  10  11  12  13  14  15  16  26  30  31  32  33  35 0
 6-311+G(2d,p)
 ****
 37  38 0
 6-311+G(2d,p)
 ****
 1  2  3  4  5  17  18  19  20  21  22  23  24  25 0
 3-21G
 ****
 27  28  29  34  36  39  40  41  42  43  44  45  46 0
 3-21G
 ****


