%nproc=1
%NoSave
%Mem=1900MB
#P OB98/GEN NMR

erre ene a

0 1
  C      -94.173     245.095     184.445
  O      -93.211     244.348     185.180
  P      -92.296     243.314     184.358
  C      -93.112     241.605     186.136
  O      -92.017     242.094     185.366
  C      -92.614     240.768     187.304
  O      -91.876     239.629     186.815
  C      -91.660     241.494     188.247
  O      -92.352     242.319     189.175
  C      -90.988     240.317     188.946
  O      -91.832     239.845     190.011
  C      -90.901     239.273     187.827
  N      -86.354     237.039     187.937
  C      -87.460     236.836     188.739
  N      -87.346     235.891     189.694
  N      -88.576     237.516     188.621
  C      -88.563     238.398     187.602
  C      -87.525     238.692     186.734
  C      -86.276     237.977     186.908
  O      -85.245     238.154     186.270
  N      -87.896     239.640     185.817
  C      -89.157     239.900     186.097
  N      -89.599     239.193     187.193
  O      -90.884     244.063     184.283
  O      -92.801     242.950     183.005
  H      -91.896     240.564     190.666
  H      -90.380     243.747     183.508
  H      -85.527     236.484     188.059
  H      -89.783     240.588     185.545
  H      -91.174     238.277     188.187
  H      -90.026     240.581     189.394
  H      -86.564     235.255     189.750
  H      -90.911     242.065     187.685
  H      -88.158     235.705     190.270
  H      -93.489     240.393     187.854
  H      -93.752     240.985     185.496
  H      -93.697     242.455     186.497
  P      -92.055     243.894     189.101
  C      -91.993     243.687     191.693
  O      -92.383     244.452     190.559
  O      -93.244     244.447     188.191
  O      -90.710     244.236     188.546
  H      -92.973     245.275     187.740
  H      -91.034     243.188     191.525
  H      -92.764     242.944     191.910
  H      -91.893     244.355     192.545
  H      -94.709     245.739     185.111
  H      -94.858     244.424     183.970
  H      -93.676     245.683     183.702

 3  4  5  6  7  8  9  10  11  12  23  26  30  31  33  0
 6-311+G(2d,p)
 ****
 35  36  37  38 0
 6-311+G(2d,p)
 ****
 1  2  13  14  15  16  17  18  19  20  21  22  24  25  27  28  29 0
 3-21G
 ****
 32  34  39  40  41  42  43  44  45  46  47  48  49 0
 3-21G
 ****


