%nproc=1
%NoSave
%Mem=1900MB
#P OB98/GEN NMR

erre ene a

0 1
  C     -755.590       8.189     148.662
  O     -756.204       7.245     149.516
  H     -754.969       8.854     149.267
  H     -756.349       8.785     148.151
  H     -754.952       7.688     147.927
  P     -757.097       6.079     148.871
  C     -756.432       4.356     150.655
  O     -757.493       5.087     150.069
  C     -756.883       3.696     151.962
  O     -757.025       4.728     152.977
  C     -758.227       2.961     151.845
  O     -758.166       1.782     152.643
  C     -759.214       3.939     152.453
  O     -760.363       3.282     152.991
  C     -758.357       4.636     153.513
  N     -759.480       7.779     157.305
  C     -758.891       6.532     157.329
  N     -758.571       6.033     158.539
  N     -758.636       5.829     156.251
  C     -758.995       6.458     155.105
  C     -759.588       7.690     154.950
  C     -759.880       8.450     156.149
  O     -760.415       9.554     156.189
  N     -759.826       7.966     153.626
  C     -759.378       6.903     152.983
  N     -758.874       5.955     153.836
  O     -756.503       5.402     147.679
  O     -758.480       6.801     148.519
  H     -761.019       3.208     152.267
  H     -758.520       7.023     147.568
  H     -759.665       8.272     158.162
  H     -759.397       6.768     151.909
  H     -758.320       4.072     154.453
  H     -759.549       4.650     151.687
  H     -758.719       6.524     159.408
  H     -758.483       2.701     150.814
  H     -758.114       5.128     158.580
  H     -756.096       3.019     152.302
  H     -755.606       5.052     150.863
  H     -756.080       3.590     149.951
  P     -757.355       0.516     152.087
  C     -755.978      -0.257     154.128
  O     -757.114      -0.499     153.304
  O     -756.140       0.833     151.276
  O     -758.456      -0.252     151.208
  H     -757.999      -0.716     150.478
  H     -755.931      -0.999     154.897
  H     -756.060       0.713     154.573
  H     -755.090      -0.303     153.533

 6  7  8  9  10  11  12  13  14  15  26  29  33  34 0
 6-311+G(2d,p)
 ****
 36  38  39  40  41 0
 6-311+G(2d,p)
 ****
 1  2  3  4  5  16  17  18  19  20  21  22  23  24  25 0
 3-21G
 ****
 27  28  30  31  32  35  37  42  43  44  45  46  47 0
 3-21G
 ****
 48  49 0
 3-21G
 ****


