%nproc=1
%NoSave
%Mem=1900MB
#P OB98/GEN NMR

erre ene a

0 1
  C      260.689     202.947     -95.826
  O      260.077     204.215     -95.944
  H      260.215     202.260     -96.532
  H      260.562     202.554     -94.814
  H      261.753     203.021     -96.066
  P      260.557     205.350     -94.919
  C      260.292     204.121     -92.644
  O      259.776     205.094     -93.542
  C      259.337     203.958     -91.466
  O      259.401     205.130     -90.617
  C      257.875     203.828     -91.865
  O      257.542     202.526     -92.314
  C      257.187     204.182     -90.558
  O      257.083     203.046     -89.688
  C      258.121     205.254     -89.966
  N      257.562     206.595     -90.104
  C      256.688     206.991     -89.095
  O      256.393     206.277     -88.138
  N      256.130     208.231     -89.243
  C      256.315     209.071     -90.300
  O      255.739     210.148     -90.397
  C      257.234     208.593     -91.345
  C      257.805     207.393     -91.204
  O      259.880     206.677     -95.501
  O      262.037     205.489     -94.783
  H      260.558     207.234     -95.925
  H      256.387     203.268     -89.038
  H      255.496     208.537     -88.521
  H      257.404     209.234     -92.200
  H      258.478     207.014     -91.966
  H      258.293     205.064     -88.899
  H      256.178     204.547     -90.735
  H      257.619     204.584     -92.618
  H      259.655     203.089     -90.876
  H      261.267     204.447     -92.268
  H      260.421     203.175     -93.179
  P      257.090     202.355     -93.845
  C      254.709     203.411     -93.480
  O      255.491     202.277     -93.822
  O      257.568     200.856     -94.127
  O      257.677     203.388     -94.748
  H      257.585     200.323     -93.313
  H      253.671     203.155     -93.523
  H      254.910     204.204     -94.170
  H      254.957     203.729     -92.489

 6  7  8  9  10  11  12  13  14  15  16  27  31  32  33  34  35 0
 6-311+G(2d,p)
 ****
 36  37 0
 6-311+G(2d,p)
 ****
 1  2  3  4  5  17  18  19  20  21  22  23  24  25 0
 3-21G
 ****
 26  28  29  30  38  39  40  41  42  43  44  45 0
 3-21G
 ****


