%nproc=1
%NoSave
%Mem=1900MB
#P OB98/GEN NMR

erre ene a

0 1
  C       34.102     573.632     163.111
  O       34.589     574.144     164.334
  H       34.566     572.657     162.923
  H       34.351     574.299     162.283
  H       33.016     573.496     163.163
  P       34.182     575.628     164.766
  C       36.355     577.019     164.761
  O       35.205     576.616     164.020
  C       37.154     578.075     164.000
  O       36.272     579.197     163.711
  C       38.367     578.604     164.774
  O       39.438     578.834     163.844
  C       37.859     579.919     165.333
  O       38.928     580.807     165.615
  C       36.894     580.387     164.231
  N       35.910     581.330     164.777
  C       35.810     582.571     164.137
  O       36.524     582.832     163.160
  N       34.959     583.514     164.651
  C       34.313     583.270     165.741
  N       33.504     584.262     166.221
  C       34.398     581.984     166.471
  C       35.210     581.068     165.934
  O       34.038     575.870     166.234
  O       32.802     575.886     163.994
  H       38.567     581.703     165.743
  H       32.052     575.615     164.559
  H       33.839     581.829     167.378
  H       35.348     580.097     166.402
  H       37.439     580.872     163.417
  H       37.309     579.728     166.267
  H       38.705     577.923     165.562
  H       37.461     577.654     163.029
  H       33.501     585.138     165.705
  H       36.982     576.120     164.915
  H       32.995     584.202     167.088
  H       36.048     577.406     165.740
  P       40.761     577.925     163.876
  C       42.217     578.583     165.872
  O       41.204     577.692     165.401
  O       41.855     578.390     162.973
  O       40.235     576.471     163.429
  H       40.955     575.999     162.967
  H       42.447     578.354     166.892
  H       41.865     579.591     165.803
  H       43.097     578.471     165.274

 6  7  8  9  10  11  12  13  14  15  16  26  30  31  32  33  35 0
 6-311+G(2d,p)
 ****
 37  38 0
 6-311+G(2d,p)
 ****
 1  2  3  4  5  17  18  19  20  21  22  23  24  25 0
 3-21G
 ****
 27  28  29  34  36  39  40  41  42  43  44  45  46 0
 3-21G
 ****


