%nproc=1
%NoSave
%Mem=1900MB
#P OB98/GEN NMR

erre ene a

0 1
  C      411.366     281.000      74.564
  O      410.742     282.228      74.877
  H      410.998     280.619      73.605
  H      412.443     281.170      74.488
  H      411.181     280.264      75.351
  P      409.134     282.220      74.932
  C      408.923     283.322      72.598
  O      408.647     283.413      73.983
  C      408.298     284.505      71.847
  O      406.863     284.407      71.875
  C      408.618     285.868      72.448
  O      409.940     286.309      72.085
  C      407.540     286.719      71.802
  O      407.944     287.078      70.456
  C      406.346     285.765      71.769
  N      401.463     286.892      72.908
  C      402.100     286.737      71.715
  N      403.397     286.451      71.498
  C      404.063     286.300      72.650
  C      403.552     286.429      73.926
  C      402.182     286.743      74.039
  N      401.527     286.931      75.242
  N      404.519     286.188      74.880
  C      405.607     285.928      74.184
  N      405.390     285.980      72.837
  O      408.809     282.744      76.402
  O      408.503     280.895      74.672
  H      407.999     286.254      69.948
  H      408.015     282.280      76.741
  H      401.489     286.867      70.834
  H      406.573     285.674      74.624
  H      405.813     285.817      70.805
  H      407.351     287.656      72.326
  H      408.493     285.875      73.556
  H      408.623     284.444      70.801
  H      408.503     282.384      72.199
  H      400.527     286.956      75.263
  H      402.073     286.794      76.093
  H      410.009     283.304      72.447
  P      410.600     287.483      72.960
  C      409.839     289.521      71.543
  O      410.914     288.681      71.922
  O      412.031     286.885      73.309
  O      409.840     287.878      74.187
  H      412.383     287.311      74.142
  H      410.191     290.263      70.857
  H      409.437     290.000      72.411
  H      409.077     288.935      71.074

 6  7  8  9  10  11  12  13  14  15  25  28  32  33  34  35 0
 6-311+G(2d,p)
 ****
 36  39  40 0
 6-311+G(2d,p)
 ****
 1  2  3  4  5  16  17  18  19  20  21  22  23  24 0
 3-21G
 ****
 26  27  29  30  31  37  38  41  42  43  44  45  46  47  48 0
 3-21G
 ****


