%nproc=1
%NoSave
%Mem=1900MB
#P OB98/GEN NMR

erre ene a

0 1
  C       41.094      37.850     222.025
  O       41.804      38.618     223.002
  P       40.937      39.375     224.119
  C       39.306      41.416     223.892
  O       40.487      40.759     223.447
  C       39.576      42.908     224.083
  O       40.480      43.125     225.194
  C       40.238      43.578     222.887
  O       39.316      43.776     221.828
  C       40.761      44.857     223.528
  O       39.709      45.827     223.645
  C       41.181      44.364     224.930
  N       42.623      44.200     225.071
  C       43.279      45.202     225.782
  O       42.702      46.186     226.247
  N       44.631      45.046     225.923
  C       45.379      44.024     225.408
  O       46.589      43.934     225.575
  C       44.637      43.024     224.624
  C       43.314      43.155     224.492
  O       42.071      39.791     225.165
  O       39.840      38.533     224.676
  H       42.917      40.019     224.739
  H       40.093      46.599     224.110
  H       45.123      45.754     226.444
  H       45.202      42.214     224.179
  H       42.748      42.427     223.918
  H       40.844      45.074     225.696
  H       41.569      45.320     222.946
  H       41.079      42.968     222.536
  H       38.622      43.401     224.312
  H       38.977      40.987     224.842
  H       38.511      41.249     223.159
  P       39.164      42.578     220.765
  C       40.899      41.203     219.372
  O       40.610      42.376     220.101
  O       38.304      43.290     219.615
  O       38.536      41.348     221.333
  H       38.619      44.186     219.406
  H       41.761      41.397     218.728
  H       40.057      40.899     218.748
  H       41.152      40.396     220.066
  H       41.791      37.403     221.347
  H       40.429      38.490     221.483
  H       40.531      37.083     222.515

 3  4  5  6  7  8  9  10  11  12  13  24  28  29  30  31  32 0
 6-311+G(2d,p)
 ****
 33  34 0
 6-311+G(2d,p)
 ****
 1  2  14  15  16  17  18  19  20  21  22  23  25  26  27 0
 3-21G
 ****
 35  36  37  38  39  40  41  42  43  44  45 0
 3-21G
 ****


