%nproc=1
%NoSave
%Mem=1900MB
#P OB98/GEN NMR

erre ene a

0 1
  C       -0.018     328.555    -613.552
  O        1.101     328.566    -612.694
  H       -0.642     329.424    -613.322
  H       -0.615     327.653    -613.391
  H        0.296     328.618    -614.597
  P        2.170     327.373    -612.781
  C        3.885     329.246    -612.387
  O        3.487     327.925    -612.034
  C        4.725     329.883    -611.277
  O        3.860     330.239    -610.164
  C        5.828     328.965    -610.735
  O        7.057     329.685    -610.643
  C        5.342     328.610    -609.332
  O        6.397     328.241    -608.451
  C        4.577     329.891    -608.965
  N        3.694     329.688    -607.825
  C        4.244     329.937    -606.563
  O        5.415     330.305    -606.461
  N        3.480     329.707    -605.451
  C        2.282     329.226    -605.580
  N        1.586     328.989    -604.437
  C        1.668     328.926    -606.890
  C        2.420     329.183    -607.961
  O        2.406     326.842    -614.158
  O        1.630     326.259    -611.766
  H        6.848     327.451    -608.815
  H        2.011     325.386    -612.013
  H        0.671     328.521    -606.946
  H        2.058     328.991    -608.967
  H        5.271     330.705    -608.731
  H        4.644     327.765    -609.396
  H        5.983     328.071    -611.337
  H        5.141     330.822    -611.657
  H        2.048     329.203    -603.560
  H        2.986     329.842    -612.581
  H        0.662     328.594    -604.410
  H        4.487     329.188    -613.300
  P        8.181     329.306    -611.727
  C        9.764     331.259    -611.064
  O        9.593     329.852    -611.190
  O        7.840     330.266    -612.965
  O        8.161     327.869    -612.128
  H        7.489     329.742    -613.707
  H       10.748     331.467    -610.698
  H        9.039     331.647    -610.379
  H        9.634     331.721    -612.020

 6  7  8  9  10  11  12  13  14  15  16  26  30  31  32  33  35 0
 6-311+G(2d,p)
 ****
 37  38 0
 6-311+G(2d,p)
 ****
 1  2  3  4  5  17  18  19  20  21  22  23  24  25 0
 3-21G
 ****
 27  28  29  34  36  39  40  41  42  43  44  45  46 0
 3-21G
 ****


