%nproc=1
%NoSave
%Mem=1900MB
#P OB98/GEN NMR

erre ene a

0 1
  C     -242.202     659.028    -270.699
  O     -241.387     658.990    -271.855
  P     -242.045     658.965    -273.316
  C     -241.542     661.493    -273.255
  O     -242.478     660.481    -273.616
  C     -241.195     662.373    -274.457
  O     -240.700     661.566    -275.550
  C     -242.379     663.148    -275.019
  O     -242.665     664.272    -274.201
  C     -241.866     663.494    -276.408
  O     -241.020     664.651    -276.385
  C     -241.060     662.230    -276.782
  N     -241.778     661.349    -277.684
  C     -241.846     661.763    -279.018
  O     -241.338     662.826    -279.362
  N     -242.517     660.979    -279.924
  C     -243.112     659.887    -279.515
  N     -243.770     659.161    -280.455
  C     -243.093     659.441    -278.114
  C     -242.421     660.207    -277.256
  O     -243.108     657.941    -273.519
  O     -240.776     658.763    -274.281
  H     -241.592     665.402    -276.134
  H     -240.444     657.831    -274.238
  H     -243.608     658.532    -277.823
  H     -242.360     659.952    -276.204
  H     -240.108     662.513    -277.264
  H     -242.684     663.708    -277.110
  H     -243.252     662.493    -275.097
  H     -240.394     663.061    -274.157
  H     -243.790     659.520    -281.401
  H     -240.629     661.004    -272.890
  H     -244.290     658.329    -280.244
  H     -241.954     662.097    -272.442
  P     -244.136     664.917    -274.216
  C     -244.835     663.065    -272.582
  O     -245.166     663.783    -273.756
  O     -244.503     665.641    -275.467
  O     -244.113     665.910    -272.968
  H     -244.533     666.757    -273.233
  H     -245.736     662.579    -272.195
  H     -244.436     663.736    -271.815
  H     -244.094     662.296    -272.818
  H     -241.583     659.040    -269.826
  H     -242.832     658.163    -270.678
  H     -242.808     659.910    -270.719

 3  4  5  6  7  8  9  10  11  12  13  23  27  28  29  30  32 0
 6-311+G(2d,p)
 ****
 34  35 0
 6-311+G(2d,p)
 ****
 1  2  14  15  16  17  18  19  20  21  22  24  25  26 0
 3-21G
 ****
 31  33  36  37  38  39  40  41  42  43  44  45  46 0
 3-21G
 ****


