%nproc=1
%NoSave
%Mem=1900MB
#P OB98/GEN NMR

erre ene a

0 1
  C     -656.884    -481.748     102.176
  O     -657.225    -481.994     100.824
  H     -655.841    -481.416     102.213
  H     -656.986    -482.666     102.760
  H     -657.518    -480.966     102.592
  P     -658.722    -482.515     100.554
  C     -660.124    -484.424     101.615
  O     -658.830    -483.953     101.270
  C     -660.276    -485.887     101.217
  O     -659.333    -486.709     101.928
  C     -661.657    -486.472     101.493
  O     -662.568    -486.147     100.448
  C     -661.346    -487.962     101.545
  O     -661.248    -488.534     100.225
  C     -659.979    -487.975     102.254
  N     -659.271    -491.170     106.099
  C     -659.029    -491.336     104.749
  N     -658.576    -492.541     104.356
  N     -659.222    -490.394     103.862
  C     -659.701    -489.245     104.390
  C     -659.966    -488.962     105.712
  C     -659.731    -489.994     106.690
  O     -659.854    -489.896     107.907
  N     -660.430    -487.676     105.857
  C     -660.482    -487.202     104.627
  N     -660.067    -488.118     103.702
  O     -658.709    -482.891      98.992
  O     -659.805    -481.546     100.880
  H     -660.551    -488.074      99.730
  H     -659.597    -482.744      98.626
  H     -659.085    -491.928     106.731
  H     -660.814    -486.211     104.355
  H     -659.333    -488.775     101.890
  H     -662.123    -488.519     102.075
  H     -658.729    -493.374     104.914
  H     -662.038    -486.133     102.464
  H     -658.423    -492.679     103.364
  H     -660.038    -485.961     100.147
  H     -660.875    -483.820     101.094
  H     -660.271    -484.307     102.696
  P     -664.134    -486.444     100.709
  C     -665.500    -488.524     101.449
  O     -664.244    -488.004     101.032
  O     -664.772    -486.319      99.243
  O     -664.790    -485.528     101.690
  H     -665.735    -486.215      99.312
  H     -665.410    -489.576     101.625
  H     -666.229    -488.351     100.685
  H     -665.806    -488.036     102.351

 6  7  8  9  10  11  12  13  14  15  26  29  33  34 0
 6-311+G(2d,p)
 ****
 36  38  39  40  41 0
 6-311+G(2d,p)
 ****
 1  2  3  4  5  16  17  18  19  20  21  22  23  24  25 0
 3-21G
 ****
 27  28  30  31  32  35  37  42  43  44  45  46  47 0
 3-21G
 ****
 48  49 0
 3-21G
 ****


