%nproc=1
%NoSave
%Mem=1900MB
#P OB98/GEN NMR

erre ene a

0 1
  C      262.404    -362.111    -325.229
  O      261.629    -361.090    -324.581
  P      262.258    -359.689    -324.096
  C      262.173    -360.289    -321.589
  O      262.993    -359.891    -322.683
  C      262.966    -360.349    -320.276
  O      262.049    -360.437    -319.140
  C      263.941    -361.533    -320.178
  O      265.114    -361.041    -319.516
  C      263.164    -362.503    -319.295
  O      263.976    -363.502    -318.692
  C      262.534    -361.510    -318.308
  N      261.461    -362.053    -317.478
  C      261.765    -362.380    -316.152
  O      262.903    -362.276    -315.710
  N      260.749    -362.848    -315.344
  C      259.549    -362.981    -315.819
  N      258.587    -363.438    -314.966
  C      259.193    -362.662    -317.213
  C      260.180    -362.208    -317.972
  O      261.270    -358.563    -324.100
  O      263.456    -359.385    -325.111
  H      263.506    -358.423    -325.271
  H      263.393    -364.142    -318.253
  H      258.178    -362.775    -317.565
  H      259.996    -361.919    -319.008
  H      263.322    -361.093    -317.662
  H      262.414    -363.010    -319.904
  H      264.232    -361.945    -321.145
  H      263.509    -359.395    -320.162
  H      258.870    -363.635    -314.009
  H      261.769    -361.283    -321.800
  H      257.624    -363.566    -315.226
  H      261.333    -359.594    -321.500
  P      266.543    -361.158    -320.233
  C      267.199    -363.539    -319.395
  O      266.836    -362.715    -320.486
  O      267.550    -360.831    -319.023
  O      266.783    -360.225    -321.373
  H      268.376    -360.476    -319.388
  H      266.646    -364.483    -319.463
  H      266.992    -363.072    -318.428
  H      268.272    -363.757    -319.468
  H      261.775    -362.946    -325.457
  H      263.193    -362.426    -324.579
  H      262.822    -361.721    -326.134

 3  4  5  6  7  8  9  10  11  12  13  24  27  28  29  30  32 0
 6-311+G(2d,p)
 ****
 34  35 0
 6-311+G(2d,p)
 ****
 1  2  14  15  16  17  18  19  20  21  22  23  25  26 0
 3-21G
 ****
 31  33  36  37  38  39  40  41  42  43  44  45  46 0
 3-21G
 ****


