%nproc=1
%NoSave
%Mem=1900MB
#P OB98/GEN NMR

erre ene a

0 1
  C     -185.630     533.322     293.783
  O     -184.482     533.328     292.963
  H     -186.434     532.809     293.251
  H     -185.941     534.350     293.990
  H     -185.440     532.794     294.722
  P     -183.070     533.721     293.607
  C     -182.504     535.289     291.632
  O     -182.105     534.159     292.401
  C     -182.728     534.896     290.162
  O     -184.004     534.204     290.049
  C     -182.793     536.128     289.255
  O     -182.368     535.834     287.922
  C     -184.283     536.449     289.237
  O     -184.676     537.210     288.093
  C     -184.895     535.053     289.298
  N     -189.846     533.992     288.661
  C     -188.833     534.063     287.716
  N     -189.201     533.822     286.435
  N     -187.598     534.366     287.998
  C     -187.401     534.661     289.310
  C     -188.317     534.650     290.333
  C     -189.680     534.273     290.011
  O     -190.617     534.216     290.806
  N     -187.742     535.008     291.525
  C     -186.481     535.250     291.224
  N     -186.213     535.022     289.894
  O     -182.452     532.311     294.048
  O     -183.127     534.677     294.757
  H     -184.407     538.130     288.256
  H     -181.781     532.437     294.740
  H     -190.773     533.729     288.391
  H     -185.721     535.560     291.927
  H     -184.980     534.626     288.289
  H     -184.509     537.048     290.118
  H     -190.170     533.777     286.151
  H     -182.215     536.965     289.639
  H     -188.566     534.167     285.705
  H     -181.955     534.181     289.845
  H     -181.711     536.033     291.712
  H     -183.411     535.729     292.054
  P     -181.470     536.921     287.160
  C     -182.669     536.319     284.871
  O     -181.487     536.626     285.585
  O     -179.977     536.555     287.597
  O     -181.809     538.343     287.474
  H     -179.589     537.284     288.117
  H     -182.432     536.162     283.839
  H     -183.360     537.131     284.959
  H     -183.109     535.431     285.275

 6  7  8  9  10  11  12  13  14  15  26  29  33  34 0
 6-311+G(2d,p)
 ****
 36  38  39  40  41 0
 6-311+G(2d,p)
 ****
 1  2  3  4  5  16  17  18  19  20  21  22  23  24  25 0
 3-21G
 ****
 27  28  30  31  32  35  37  42  43  44  45  46  47 0
 3-21G
 ****
 48  49 0
 3-21G
 ****


