%nproc=1
%NoSave
%Mem=1900MB
#P OB98/GEN NMR

erre ene a

0 1
  C       59.752    -159.964      22.479
  O       59.468    -158.736      21.839
  H       60.783    -159.936      22.845
  H       59.660    -160.790      21.768
  H       59.084    -160.124      23.329
  P       57.982    -158.474      21.294
  C       56.610    -159.242      19.259
  O       57.906    -159.131      19.830
  C       56.444    -160.591      18.561
  O       57.322    -160.631      17.405
  C       56.784    -161.793      19.453
  O       55.875    -162.851      19.155
  C       58.181    -162.180      19.004
  O       58.463    -163.558      19.236
  C       58.150    -161.805      17.522
  N       62.276    -163.961      15.554
  C       61.057    -164.514      15.892
  N       60.917    -165.845      15.702
  N       60.057    -163.822      16.376
  C       60.331    -162.500      16.501
  C       61.496    -161.834      16.204
  C       62.600    -162.613      15.681
  O       63.705    -162.183      15.376
  N       61.391    -160.495      16.493
  C       60.165    -160.354      16.968
  N       59.485    -161.545      17.004
  O       57.516    -157.054      21.358
  O       57.068    -159.442      22.180
  H       59.409    -163.700      19.011
  H       56.629    -158.943      22.894
  H       63.014    -164.542      15.192
  H       59.726    -159.424      17.304
  H       57.719    -162.599      16.899
  H       58.924    -161.579      19.544
  H       61.636    -166.437      15.317
  H       56.745    -161.556      20.521
  H       60.022    -166.269      15.921
  H       55.418    -160.663      18.182
  H       56.486    -158.431      18.530
  H       55.855    -159.129      20.045
  P       54.612    -163.078      20.116
  C       54.107    -164.233      22.365
  O       55.082    -163.978      21.359
  O       53.358    -163.528      19.441
  O       54.417    -161.634      20.792
  H       53.470    -161.507      20.999
  H       54.538    -164.839      23.134
  H       53.274    -164.746      21.932
  H       53.777    -163.306      22.785

 6  7  8  9  10  11  12  13  14  15  26  29  33  34 0
 6-311+G(2d,p)
 ****
 36  38  39  40  41 0
 6-311+G(2d,p)
 ****
 1  2  3  4  5  16  17  18  19  20  21  22  23  24  25 0
 3-21G
 ****
 27  28  30  31  32  35  37  42  43  44  45  46  47 0
 3-21G
 ****
 48  49 0
 3-21G
 ****


