%nproc=1
%NoSave
%Mem=1900MB
#P OB98/GEN NMR

erre ene a

0 1
  C       17.934     291.006     -93.713
  O       18.612     290.422     -92.613
  P       20.159     290.809     -92.412
  C       21.863     290.640     -90.451
  O       20.509     290.536     -90.873
  C       22.023     290.063     -89.045
  O       21.464     290.967     -88.073
  C       21.310     288.737     -88.822
  O       22.020     287.664     -89.423
  C       21.268     288.697     -87.298
  O       22.544     288.286     -86.780
  C       21.005     290.171     -86.948
  N       17.153     289.726     -83.604
  C       18.437     289.310     -83.560
  N       19.396     289.446     -84.498
  C       18.920     290.098     -85.573
  C       17.631     290.563     -85.767
  C       16.721     290.360     -84.720
  N       15.409     290.785     -84.771
  N       17.508     291.160     -87.004
  C       18.706     291.068     -87.542
  N       19.599     290.446     -86.710
  O       20.150     292.404     -92.514
  O       21.096     290.188     -93.401
  H       22.455     288.219     -85.807
  H       20.972     292.732     -92.928
  H       18.735     288.798     -82.648
  H       18.978     291.438     -88.521
  H       21.559     290.500     -86.061
  H       20.516     288.004     -86.906
  H       20.291     288.776     -89.223
  H       23.097     289.959     -88.841
  H       22.161     291.693     -90.437
  H       14.789     290.469     -84.041
  H       15.056     291.126     -85.655
  H       22.499     290.111     -91.165
  P       21.153     286.467     -90.050
  C       21.743     284.598     -91.709
  O       22.103     285.872     -91.201
  O       20.051     287.269     -90.886
  O       20.634     285.484     -89.061
  H       20.449     287.963     -91.441
  H       22.435     284.336     -92.516
  H       20.726     284.623     -92.106
  H       21.819     283.843     -90.921
  H       16.920     290.666     -93.728
  H       18.420     290.722     -94.623
  H       17.951     292.072     -93.618

 3  4  5  6  7  8  9  10  11  12  22  25  29  30  31  32 0
 6-311+G(2d,p)
 ****
 33  36  37 0
 6-311+G(2d,p)
 ****
 1  2  13  14  15  16  17  18  19  20  21  23  24  26 0
 3-21G
 ****
 27  28  34  35  38  39  40  41  42  43  44  45  46  47  48 0
 3-21G
 ****


