%nproc=1
%NoSave
%Mem=1900MB
#P OB98/GEN NMR

erre ene a

0 1
  C       36.330    -268.082     236.481
  O       35.581    -268.409     235.327
  H       37.260    -268.657     236.470
  H       35.764    -268.345     237.378
  H       36.573    -267.015     236.489
  P       34.258    -267.540     235.056
  C       33.699    -265.581     233.400
  O       34.637    -266.531     233.870
  C       34.281    -264.777     232.236
  O       35.607    -264.321     232.604
  C       34.406    -265.576     230.937
  O       34.147    -264.700     229.839
  C       35.870    -265.987     230.919
  O       36.329    -266.276     229.601
  C       36.529    -264.771     231.590
  N       37.839    -265.091     232.155
  C       38.907    -264.276     231.768
  O       38.725    -263.349     230.976
  N       40.161    -264.549     232.250
  C       40.348    -265.588     233.000
  N       41.619    -265.824     233.426
  C       39.260    -266.504     233.399
  C       38.044    -266.193     232.953
  O       34.210    -266.603     236.352
  O       33.024    -268.349     234.835
  H       35.780    -267.002     229.231
  H       35.074    -266.223     236.586
  H       39.468    -267.365     234.019
  H       37.184    -266.805     233.203
  H       36.655    -263.954     230.869
  H       36.016    -266.885     231.529
  H       33.725    -266.430     230.899
  H       33.667    -263.881     232.089
  H       42.339    -265.184     233.110
  H       33.413    -264.897     234.205
  H       41.891    -266.631     233.966
  H       32.801    -266.121     233.079
  P       32.916    -265.000     228.863
  C       30.337    -264.800     228.941
  O       31.582    -264.363     229.478
  O       32.790    -266.409     228.394
  O       33.212    -264.028     227.615
  H       32.998    -264.518     226.798
  H       29.536    -264.296     229.441
  H       30.238    -265.856     229.083
  H       30.301    -264.576     227.895

 6  7  8  9  10  11  12  13  14  15  16  26  30  31  32  33  35 0
 6-311+G(2d,p)
 ****
 37  38 0
 6-311+G(2d,p)
 ****
 1  2  3  4  5  17  18  19  20  21  22  23  24  25 0
 3-21G
 ****
 27  28  29  34  36  39  40  41  42  43  44  45  46 0
 3-21G
 ****


