%nproc=1
%NoSave
%Mem=1900MB
#P OB98/GEN NMR

erre ene a

0 1
  C      -37.955    -242.355     -62.371
  O      -38.855    -242.093     -63.438
  P      -38.593    -242.750     -64.882
  C      -41.028    -242.212     -65.532
  O      -39.649    -242.111     -65.903
  C      -41.807    -241.012     -66.061
  O      -41.786    -239.927     -65.100
  C      -41.257    -240.418     -67.354
  O      -41.591    -241.232     -68.467
  C      -41.887    -239.041     -67.344
  O      -43.239    -239.095     -67.840
  C      -41.889    -238.689     -65.835
  N      -40.718    -234.371     -63.386
  C      -41.909    -234.915     -63.729
  N      -42.128    -236.055     -64.428
  C      -40.975    -236.626     -64.777
  C      -39.691    -236.176     -64.522
  C      -39.590    -234.978     -63.781
  N      -38.373    -234.449     -63.356
  N      -38.748    -237.016     -65.093
  C      -39.459    -237.967     -65.678
  N      -40.807    -237.812     -65.461
  O      -38.512    -244.244     -64.895
  O      -37.203    -242.091     -65.342
  H      -43.205    -239.468     -68.748
  H      -36.541    -242.801     -65.474
  H      -42.802    -234.363     -63.401
  H      -39.053    -238.789     -66.244
  H      -42.822    -238.219     -65.529
  H      -41.345    -238.317     -67.965
  H      -40.161    -240.315     -67.275
  H      -42.859    -241.322     -66.192
  H      -41.091    -242.259     -64.444
  H      -38.428    -233.694     -62.697
  H      -37.546    -235.051     -63.374
  H      -41.438    -243.149     -65.936
  P      -40.824    -241.034     -69.855
  C      -40.432    -243.513     -70.421
  O      -41.148    -242.326     -70.754
  O      -39.383    -240.668     -69.762
  O      -41.664    -239.876     -70.596
  H      -41.068    -239.348     -71.152
  H      -39.415    -243.440     -70.832
  H      -40.945    -244.370     -70.878
  H      -40.384    -243.659     -69.343
  H      -38.284    -241.840     -61.493
  H      -36.976    -242.016     -62.639
  H      -37.927    -243.407     -62.178

 3  4  5  6  7  8  9  10  11  12  22  25  29  30  31  32 0
 6-311+G(2d,p)
 ****
 33  36  37 0
 6-311+G(2d,p)
 ****
 1  2  13  14  15  16  17  18  19  20  21  23  24  26 0
 3-21G
 ****
 27  28  34  35  38  39  40  41  42  43  44  45  46  47  48 0
 3-21G
 ****


