%nproc=1
%NoSave
%Mem=1900MB
#P OB98/GEN NMR

erre ene a

0 1
  C     -329.380    -412.434    -245.687
  O     -329.909    -411.311    -244.976
  P     -328.916    -410.347    -244.174
  C     -328.312    -409.118    -246.371
  O     -328.699    -408.992    -245.006
  C     -328.333    -407.747    -247.053
  O     -329.628    -407.112    -246.926
  C     -327.349    -406.761    -246.431
  O     -325.980    -407.013    -246.636
  C     -327.892    -405.419    -246.917
  O     -327.444    -405.116    -248.237
  C     -329.423    -405.681    -246.910
  N     -330.092    -405.060    -245.768
  C     -330.557    -403.762    -245.963
  O     -330.379    -403.131    -247.006
  N     -331.195    -403.194    -244.896
  C     -331.386    -403.761    -243.674
  O     -331.951    -403.192    -242.749
  C     -330.859    -405.128    -243.517
  C     -330.247    -405.704    -244.555
  O     -327.671    -410.980    -243.657
  O     -329.833    -409.842    -242.946
  H     -327.811    -404.246    -248.473
  H     -329.274    -409.834    -242.146
  H     -331.543    -402.250    -245.024
  H     -330.987    -405.609    -242.560
  H     -329.853    -406.714    -244.463
  H     -329.883    -405.290    -247.824
  H     -327.573    -404.599    -246.266
  H     -327.499    -406.782    -245.343
  H     -328.138    -407.884    -248.118
  H     -328.983    -409.810    -246.885
  H     -327.310    -409.566    -246.413
  P     -324.888    -406.940    -245.458
  C     -325.378    -409.193    -244.271
  O     -324.483    -408.438    -245.056
  O     -325.141    -405.975    -244.351
  O     -323.582    -406.455    -246.269
  H     -323.045    -405.894    -245.676
  H     -324.931    -410.173    -244.077
  H     -326.323    -409.334    -244.796
  H     -325.557    -408.695    -243.308
  H     -330.179    -412.964    -246.162
  H     -328.877    -413.085    -245.003
  H     -328.688    -412.093    -246.429

 3  4  5  6  7  8  9  10  11  12  13  23  28  29  30  31  32 0
 6-311+G(2d,p)
 ****
 33  34 0
 6-311+G(2d,p)
 ****
 1  2  14  15  16  17  18  19  20  21  22  24  25  26  27 0
 3-21G
 ****
 35  36  37  38  39  40  41  42  43  44  45 0
 3-21G
 ****


