%nproc=1
%NoSave
%Mem=1900MB
#P OB98/GEN NMR

erre ene a

0 1
  C       -5.611     -13.821      10.505
  O       -5.194     -12.540      10.079
  H       -4.867     -14.255      11.178
  H       -6.558     -13.724      11.042
  H       -5.761     -14.477       9.643
  P       -3.802     -12.476       9.282
  C       -2.522     -10.846      10.830
  O       -2.658     -12.183      10.373
  C       -1.091     -10.598      11.300
  O       -0.832     -11.460      12.439
  C       -0.021     -10.883      10.232
  O        0.884      -9.779      10.119
  C        0.738     -12.078      10.777
  O        2.123     -12.052      10.451
  C        0.498     -11.969      12.278
  N        3.762     -14.960      14.805
  C        3.755     -13.626      14.592
  N        2.807     -12.877      13.994
  C        1.763     -13.639      13.624
  C        1.617     -15.005      13.795
  C        2.691     -15.680      14.400
  N        2.722     -17.047      14.567
  N        0.411     -15.438      13.278
  C       -0.142     -14.358      12.765
  N        0.645     -13.250      12.936
  O       -3.911     -11.100       8.468
  O       -3.553     -13.632       8.374
  H        2.535     -12.826      10.877
  H       -3.866     -11.296       7.513
  H        4.632     -13.089      14.943
  H       -1.079     -14.329      12.223
  H        1.189     -11.259      12.750
  H        0.301     -12.996      10.368
  H       -0.454     -11.098       9.251
  H       -1.011      -9.563      11.654
  H       -3.207     -10.673      11.668
  H        3.577     -17.459      14.903
  H        1.976     -17.598      14.167
  H       -2.781     -10.161      10.016
  P        0.483      -8.637       9.059
  C        2.452      -9.018       7.409
  O        1.047      -9.076       7.619
  O        1.411      -7.405       9.482
  O       -0.962      -8.267       9.092
  H        0.860      -6.621       9.667
  H        2.677      -9.337       6.413
  H        2.944      -9.660       8.109
  H        2.792      -8.013       7.547

 6  7  8  9  10  11  12  13  14  15  25  28  32  33  34  35 0
 6-311+G(2d,p)
 ****
 36  39  40 0
 6-311+G(2d,p)
 ****
 1  2  3  4  5  16  17  18  19  20  21  22  23  24 0
 3-21G
 ****
 26  27  29  30  31  37  38  41  42  43  44  45  46  47  48 0
 3-21G
 ****


