%nproc=1
%NoSave
%Mem=1900MB
#P OB98/GEN NMR

erre ene a

0 1
  C      174.162     -84.508     715.076
  O      175.486     -84.373     714.537
  P      176.521     -85.607     714.493
  C      175.601     -86.518     712.258
  O      175.856     -86.798     713.636
  C      176.458     -87.379     711.336
  O      176.211     -88.788     711.568
  C      176.208     -87.164     709.847
  O      176.861     -85.985     709.398
  C      176.747     -88.462     709.254
  O      178.174     -88.402     709.133
  C      176.335     -89.486     710.321
  N      174.338     -93.790     708.394
  C      175.620     -93.409     708.622
  N      176.075     -92.240     709.134
  C      175.040     -91.431     709.446
  C      173.686     -91.684     709.275
  C      173.341     -92.930     708.716
  N      172.044     -93.307     708.475
  N      172.925     -90.608     709.688
  C      173.821     -89.733     710.123
  N      175.099     -90.181     710.003
  O      177.034     -86.026     715.832
  O      177.715     -85.094     713.554
  H      178.385     -87.730     708.458
  H      178.548     -85.547     713.810
  H      176.377     -94.137     708.355
  H      173.572     -88.761     710.537
  H      177.113     -90.252     710.462
  H      176.341     -88.673     708.253
  H      175.127     -87.094     709.656
  H      177.512     -87.192     711.574
  H      175.814     -85.454     712.075
  H      171.873     -94.207     708.039
  H      171.294     -92.652     708.664
  H      174.532     -86.704     712.062
  P      176.248     -85.140     708.185
  C      174.912     -83.317     709.407
  O      174.850     -84.533     708.677
  O      176.215     -85.834     706.863
  O      177.183     -83.831     708.123
  H      177.222     -83.511     707.205
  H      175.194     -83.528     710.442
  H      173.929     -82.849     709.385
  H      175.637     -82.633     708.962
  H      173.651     -83.571     715.005
  H      174.223     -84.804     716.102
  H      173.625     -85.250     714.522

 3  4  5  6  7  8  9  10  11  12  22  25  29  30  31  32 0
 6-311+G(2d,p)
 ****
 33  36  37 0
 6-311+G(2d,p)
 ****
 1  2  13  14  15  16  17  18  19  20  21  23  24  26 0
 3-21G
 ****
 27  28  34  35  38  39  40  41  42  43  44  45  46  47  48 0
 3-21G
 ****


