%nproc=1
%NoSave
%Mem=1900MB
#P OB98/GEN NMR

erre ene a

0 1
  C      471.397    -403.159     -38.580
  O      471.265    -402.713     -39.913
  P      469.976    -403.118     -40.785
  C      469.074    -405.314     -41.770
  O      470.213    -404.633     -41.260
  C      469.315    -406.824     -41.779
  O      469.941    -407.261     -40.532
  C      468.051    -407.660     -41.874
  O      467.306    -407.583     -43.072
  C      468.565    -409.034     -41.470
  O      469.206    -409.689     -42.568
  C      469.603    -408.659     -40.379
  N      469.108    -408.948     -39.026
  C      469.006    -410.297     -38.700
  O      469.304    -411.212     -39.467
  N      468.516    -410.565     -37.452
  C      468.082    -409.643     -36.538
  O      467.606    -409.958     -35.450
  C      468.195    -408.237     -36.953
  C      468.696    -407.960     -38.159
  O      469.632    -402.169     -41.880
  O      468.823    -403.282     -39.677
  H      469.529    -410.554     -42.249
  H      469.003    -403.958     -39.000
  H      468.416    -411.535     -37.188
  H      467.870    -407.479     -36.247
  H      468.794    -406.926     -38.491
  H      470.535    -409.228     -40.529
  H      467.758    -409.692     -41.124
  H      467.358    -407.330     -41.079
  H      470.019    -407.052     -42.588
  H      468.895    -404.980     -42.796
  H      468.187    -405.056     -41.176
  P      465.915    -408.341     -43.294
  C      465.061    -410.786     -43.306
  O      466.165    -409.912     -43.150
  O      465.085    -407.872     -44.447
  O      465.136    -408.000     -41.935
  H      464.179    -407.955     -42.108
  H      465.405    -411.813     -43.127
  H      464.664    -410.726     -44.316
  H      464.277    -410.546     -42.573
  H      472.313    -402.789     -38.169
  H      471.404    -404.229     -38.561
  H      470.574    -402.797     -38.000

 3  4  5  6  7  8  9  10  11  12  13  23  28  29  30  31  32 0
 6-311+G(2d,p)
 ****
 33  34 0
 6-311+G(2d,p)
 ****
 1  2  14  15  16  17  18  19  20  21  22  24  25  26  27 0
 3-21G
 ****
 35  36  37  38  39  40  41  42  43  44  45 0
 3-21G
 ****


