%nproc=1
%NoSave
%Mem=1900MB
#P OB98/GEN NMR

erre ene a

0 1
  C     -236.181    -122.371    -277.618
  O     -236.638    -121.043    -277.341
  P     -237.959    -120.555    -278.123
  C     -237.446    -118.001    -278.137
  O     -238.270    -119.053    -277.647
  C     -237.525    -116.782    -277.224
  O     -236.638    -116.918    -276.098
  C     -237.121    -115.472    -277.892
  O     -238.172    -114.940    -278.685
  C     -236.866    -114.588    -276.675
  O     -238.106    -114.050    -276.190
  C     -236.276    -115.583    -275.661
  N     -232.361    -113.470    -273.231
  C     -233.720    -113.286    -273.050
  N     -234.085    -112.440    -272.061
  N     -234.633    -113.880    -273.769
  C     -234.121    -114.723    -274.700
  C     -232.799    -114.983    -274.977
  C     -231.795    -114.297    -274.195
  O     -230.582    -114.395    -274.334
  N     -232.671    -115.903    -275.988
  C     -233.911    -116.215    -276.306
  N     -234.829    -115.513    -275.561
  O     -239.121    -121.408    -277.428
  O     -237.903    -120.775    -279.597
  H     -238.513    -114.732    -275.621
  H     -239.865    -121.530    -278.050
  H     -231.700    -112.980    -272.653
  H     -234.198    -116.941    -277.057
  H     -236.696    -115.441    -274.661
  H     -236.216    -113.736    -276.903
  H     -233.436    -112.007    -271.422
  H     -236.195    -115.595    -278.464
  H     -235.079    -112.325    -271.889
  H     -238.556    -116.704    -276.847
  H     -237.764    -117.722    -279.145
  H     -236.416    -118.366    -278.220
  P     -237.750    -114.134    -280.009
  C     -239.092    -111.976    -279.470
  O     -238.958    -113.119    -280.293
  O     -237.888    -115.232    -281.163
  O     -236.385    -113.534    -279.960
  H     -237.267    -115.034    -281.893
  H     -238.122    -111.504    -279.286
  H     -239.547    -112.259    -278.518
  H     -239.745    -111.255    -279.972
  H     -235.303    -122.574    -277.041
  H     -235.952    -122.459    -278.659
  H     -236.947    -123.073    -277.361

 3  4  5  6  7  8  9  10  11  12  23  26  30  31  33  0
 6-311+G(2d,p)
 ****
 35  36  37  38 0
 6-311+G(2d,p)
 ****
 1  2  13  14  15  16  17  18  19  20  21  22  24  25  27  28  29 0
 3-21G
 ****
 32  34  39  40  41  42  43  44  45  46  47  48  49 0
 3-21G
 ****


