%nproc=1
%NoSave
%Mem=1900MB
#P OB98/GEN NMR

erre ene a

0 1
  C     -202.837    -167.836      26.179
  O     -203.574    -168.976      25.779
  H     -203.535    -167.098      26.584
  H     -202.330    -167.399      25.316
  H     -202.110    -168.095      26.952
  P     -202.781    -170.275      25.275
  C     -202.713    -169.186      22.935
  O     -201.975    -169.858      23.949
  C     -202.052    -169.380      21.566
  O     -200.725    -168.789      21.603
  C     -201.899    -170.849      21.159
  O     -202.116    -170.971      19.755
  C     -200.449    -171.157      21.485
  O     -199.928    -172.219      20.687
  C     -199.776    -169.812      21.227
  N     -194.993    -171.394      21.640
  C     -195.948    -171.681      20.682
  N     -195.581    -172.529      19.696
  N     -197.158    -171.179      20.691
  C     -197.376    -170.327      21.725
  C     -196.516    -169.964      22.735
  C     -195.189    -170.546      22.722
  O     -194.304    -170.340      23.554
  N     -197.114    -169.093      23.610
  C     -198.334    -168.933      23.129
  N     -198.547    -169.668      21.992
  O     -203.617    -171.509      25.132
  O     -201.622    -170.475      26.356
  H     -200.288    -173.055      21.053
  H     -201.822    -171.219      26.951
  H     -194.082    -171.814      21.590
  H     -199.098    -168.300      23.563
  H     -199.513    -169.670      20.174
  H     -200.360    -171.448      22.541
  H     -194.660    -172.929      19.616
  H     -202.591    -171.500      21.694
  H     -196.253    -172.730      18.966
  H     -202.627    -168.824      20.819
  H     -202.740    -168.118      23.182
  H     -203.737    -169.572      22.917
  P     -203.546    -171.467      19.224
  C     -202.923    -173.953      19.007
  O     -203.755    -173.001      19.659
  O     -203.838    -171.174      17.791
  O     -204.571    -170.690      20.189
  H     -205.376    -170.463      19.681
  H     -203.148    -174.933      19.373
  H     -201.897    -173.725      19.206
  H     -203.099    -173.917      17.952

 6  7  8  9  10  11  12  13  14  15  26  29  33  34 0
 6-311+G(2d,p)
 ****
 36  38  39  40  41 0
 6-311+G(2d,p)
 ****
 1  2  3  4  5  16  17  18  19  20  21  22  23  24  25 0
 3-21G
 ****
 27  28  30  31  32  35  37  42  43  44  45  46  47 0
 3-21G
 ****
 48  49 0
 3-21G
 ****


