%nproc=1
%NoSave
%Mem=1900MB
#P OB98/GEN NMR

erre ene a

0 1
  C      626.665    -365.733    -248.296
  O      627.492    -365.902    -249.435
  P      628.991    -365.340    -249.345
  C      629.883    -366.948    -251.194
  O      629.645    -365.596    -250.786
  C      630.169    -367.012    -252.692
  O      628.939    -366.918    -253.427
  C      631.045    -365.875    -253.199
  O      632.395    -366.102    -252.868
  C      630.757    -365.925    -254.695
  O      631.614    -366.868    -255.354
  C      629.283    -366.388    -254.739
  N      628.369    -365.328    -255.134
  C      628.535    -364.849    -256.444
  O      629.418    -365.306    -257.168
  N      627.712    -363.835    -256.870
  C      626.826    -363.334    -256.073
  N      626.034    -362.334    -256.553
  C      626.630    -363.804    -254.684
  C      627.439    -364.794    -254.280
  O      629.727    -366.406    -248.408
  O      629.110    -363.943    -248.818
  H      631.373    -366.831    -256.310
  H      630.483    -366.000    -247.938
  H      625.881    -363.364    -254.060
  H      627.372    -365.197    -253.283
  H      629.169    -367.219    -255.440
  H      630.924    -364.954    -255.173
  H      630.712    -364.919    -252.778
  H      630.638    -367.985    -252.913
  H      626.189    -362.034    -257.505
  H      628.990    -367.545    -250.975
  H      625.293    -361.908    -256.018
  H      630.723    -367.347    -250.614
  P      633.370    -364.840    -252.776
  C      634.921    -366.185    -251.226
  O      634.814    -365.450    -252.434
  O      632.944    -364.187    -251.367
  O      633.307    -363.854    -253.892
  H      633.399    -363.336    -251.247
  H      635.900    -366.665    -251.192
  H      634.140    -366.954    -251.174
  H      634.829    -365.509    -250.364
  H      625.699    -366.150    -248.491
  H      626.565    -364.690    -248.079
  H      627.106    -366.231    -247.458

 3  4  5  6  7  8  9  10  11  12  13  21  23  27  28  29  30  32 0
 6-311+G(2d,p)
 ****
 34  35 0
 6-311+G(2d,p)
 ****
 1  2  14  15  16  17  18  19  20  22  24  25  26 0
 3-21G
 ****
 31  33  36  37  38  39  40  41  42  43  44  45  46 0
 3-21G
 ****


