%nproc=1
%NoSave
%Mem=1900MB
#P OB98/GEN NMR

erre ene a

0 1
  C     -347.729    -899.327     600.868
  O     -347.283    -898.017     600.533
  P     -346.179    -897.367     601.512
  C     -344.310    -897.107     599.726
  O     -345.201    -896.457     600.609
  C     -343.779    -896.137     598.677
  O     -344.687    -895.987     597.560
  C     -343.526    -894.737     599.214
  O     -342.303    -894.687     599.919
  C     -343.523    -893.897     597.933
  O     -342.228    -893.927     597.311
  C     -344.560    -894.637     597.061
  N     -347.339    -890.927     594.983
  C     -345.980    -891.177     594.887
  N     -345.262    -890.317     594.125
  N     -345.384    -892.167     595.504
  C     -346.226    -892.927     596.247
  C     -347.576    -892.817     596.384
  C     -348.234    -891.697     595.692
  O     -349.436    -891.457     595.711
  N     -348.102    -893.807     597.148
  C     -347.037    -894.457     597.578
  N     -345.874    -894.017     597.006
  O     -345.274    -898.627     601.927
  O     -346.765    -896.677     602.713
  H     -341.600    -893.417     597.835
  H     -345.430    -898.847     602.864
  H     -347.751    -890.167     594.491
  H     -347.057    -895.297     598.288
  H     -344.220    -894.707     596.010
  H     -343.756    -892.857     598.136
  H     -345.662    -889.547     593.601
  H     -344.375    -894.437     599.858
  H     -344.270    -890.487     594.048
  H     -342.823    -896.557     598.275
  H     -344.823    -897.947     599.231
  H     -343.494    -897.557     600.310
  P     -342.052    -893.467     600.914
  C     -342.085    -894.697     603.195
  O     -341.331    -894.037     602.219
  O     -343.531    -893.087     601.425
  O     -341.389    -892.287     600.262
  H     -343.645    -892.127     601.419
  H     -341.460    -895.437     603.715
  H     -342.944    -895.217     602.737
  H     -342.460    -893.987     603.930
  H     -348.455    -899.651     600.152
  H     -348.170    -899.316     601.843
  H     -346.897    -900.000     600.861

 3  4  5  6  7  8  9  10  11  12  23  26  30  31 0
 6-311+G(2d,p)
 ****
 33  35  36  37  38 0
 6-311+G(2d,p)
 ****
 1  2  13  14  15  16  17  18  19  20  21  22  24  25 0
 3-21G
 ****
 27  28  29  32  34  39  40  41  42  43  44  45  46  47  48  49 0
 3-21G
 ****


