%nproc=1
%NoSave
%Mem=1900MB
#P OB98/GEN NMR

erre ene a

0 1
  C      354.671     236.289     230.953
  O      355.807     236.570     231.744
  H      354.116     235.466     231.415
  H      354.986     235.983     229.951
  H      354.018     237.163     230.891
  P      356.651     237.879     231.353
  C      358.594     236.750     230.052
  O      357.416     237.540     229.981
  C      359.150     236.505     228.649
  O      358.243     235.674     227.885
  C      359.362     237.774     227.827
  O      360.589     238.411     228.140
  C      359.383     237.197     226.421
  O      360.665     236.575     226.171
  C      358.287     236.129     226.500
  N      354.091     235.094     223.848
  C      355.252     234.361     223.984
  N      355.318     233.190     223.318
  N      356.271     234.742     224.717
  C      356.074     235.941     225.318
  C      354.970     236.759     225.254
  C      353.846     236.319     224.452
  O      352.782     236.914     224.312
  N      355.133     237.887     226.014
  C      356.342     237.770     226.515
  N      356.967     236.605     226.120
  O      357.835     237.899     232.437
  O      355.885     239.162     231.368
  H      360.601     236.153     225.293
  H      358.030     238.830     232.669
  H      353.342     234.758     223.262
  H      356.818     238.490     227.168
  H      358.502     235.256     225.874
  H      359.241     237.955     225.653
  H      354.594     232.855     222.698
  H      358.506     238.465     227.924
  H      356.150     232.619     223.429
  H      360.095     235.948     228.751
  H      358.355     235.789     230.520
  H      359.338     237.273     230.667
  P      360.615     240.021     228.167
  C      361.642     239.935     225.784
  O      360.629     240.475     226.629
  O      362.101     240.357     228.672
  O      359.571     240.651     229.035
  H      362.121     241.246     229.066
  H      361.526     240.325     224.794
  H      361.555     238.869     225.760
  H      362.605     240.206     226.164

 6  7  8  9  10  11  12  13  14  15  26  29  33  34 0
 6-311+G(2d,p)
 ****
 36  38  39  40  41 0
 6-311+G(2d,p)
 ****
 1  2  3  4  5  16  17  18  19  20  21  22  23  24  25 0
 3-21G
 ****
 27  28  30  31  32  35  37  42  43  44  45  46  47 0
 3-21G
 ****
 48  49 0
 3-21G
 ****


