%nproc=1
%NoSave
%Mem=1900MB
#P OB98/GEN NMR

erre ene a

0 1
  C      229.480      78.741    -102.069
  O      229.684      78.311    -100.720
  P      230.595      77.003    -100.529
  C      232.896      78.098    -100.033
  O      231.782      77.385     -99.513
  C      233.472      79.059     -98.984
  O      232.465      80.025     -98.558
  C      233.982      78.350     -97.715
  O      235.125      79.090     -97.261
  C      232.810      78.530     -96.760
  O      233.153      78.294     -95.403
  C      232.403      79.957     -97.113
  N      229.775      81.646     -93.075
  C      231.084      81.365     -93.249
  N      231.709      80.915     -94.360
  C      230.830      80.763     -95.366
  C      229.462      81.004     -95.342
  C      228.930      81.470     -94.124
  N      227.594      81.736     -93.932
  N      228.892      80.705     -96.571
  C      229.891      80.223     -97.289
  N      231.086      80.317     -96.635
  O      231.334      76.852    -101.942
  O      229.821      75.781    -100.160
  H      233.749      79.005     -95.085
  H      230.885      76.181    -102.490
  H      231.717      81.524     -92.377
  H      229.803      79.798     -98.282
  H      233.105      80.699     -96.719
  H      232.015      77.823     -97.026
  H      234.269      77.309     -97.876
  H      234.294      79.623     -99.446
  H      232.596      78.672    -100.914
  H      227.306      82.062     -93.020
  H      226.933      81.605     -94.686
  H      233.653      77.382    -100.375
  P      236.586      78.461     -97.472
  C      237.033      79.078     -99.925
  O      237.282      79.408     -98.567
  O      236.225      77.168     -98.354
  O      237.360      78.157     -96.230
  H      235.657      77.408     -99.110
  H      237.493      79.839    -100.558
  H      235.957      79.053    -100.117
  H      237.480      78.107    -100.159
  H      228.862      79.615    -102.075
  H      229.001      77.961    -102.623
  H      230.424      78.969    -102.518

 3  4  5  6  7  8  9  10  11  12  22  25  29  30  31  32 0
 6-311+G(2d,p)
 ****
 33  36  37 0
 6-311+G(2d,p)
 ****
 1  2  13  14  15  16  17  18  19  20  21  23  24  26 0
 3-21G
 ****
 27  28  34  35  38  39  40  41  42  43  44  45  46  47  48 0
 3-21G
 ****


