%nproc=1
%NoSave
%Mem=1900MB
#P OB98/GEN NMR

erre ene a

0 1
  C      303.529    -215.512     257.803
  O      302.671    -214.959     258.787
  H      302.943    -216.174     257.157
  H      304.329    -216.097     258.266
  H      303.961    -214.715     257.189
  P      303.325    -214.072     259.949
  C      302.903    -215.122     262.281
  O      303.718    -215.107     261.111
  C      301.592    -215.849     261.996
  O      301.853    -217.137     261.404
  C      300.777    -216.129     263.253
  O      300.130    -214.954     263.710
  C      299.858    -217.228     262.761
  O      298.762    -216.698     262.008
  C      300.814    -218.041     261.853
  N      301.382    -219.208     262.522
  C      300.470    -220.186     262.933
  O      299.266    -220.046     262.721
  N      300.951    -221.288     263.594
  C      302.224    -221.417     263.813
  N      302.628    -222.531     264.474
  C      303.218    -220.410     263.384
  C      302.732    -219.342     262.753
  O      302.536    -212.885     260.419
  O      304.747    -213.646     259.346
  H      298.246    -216.153     262.643
  H      304.673    -212.807     258.853
  H      304.270    -220.564     263.582
  H      303.398    -218.560     262.404
  H      300.285    -218.386     260.952
  H      299.445    -217.808     263.587
  H      301.421    -216.546     264.038
  H      301.014    -215.256     261.275
  H      301.909    -223.189     264.764
  H      302.707    -214.077     262.550
  H      303.599    -222.780     264.623
  H      303.432    -215.602     263.113
  P      299.738    -214.784     265.254
  C      297.276    -215.379     265.740
  O      298.593    -215.881     265.524
  O      299.406    -213.394     265.682
  O      301.004    -215.403     266.019
  H      301.785    -214.789     265.986
  H      296.606    -216.196     265.907
  H      296.959    -214.828     264.879
  H      297.275    -214.736     266.595

 6  7  8  9  10  11  12  13  14  15  16  26  30  31  32  33  35 0
 6-311+G(2d,p)
 ****
 37  38 0
 6-311+G(2d,p)
 ****
 1  2  3  4  5  17  18  19  20  21  22  23  24  25 0
 3-21G
 ****
 27  28  29  34  36  39  40  41  42  43  44  45  46 0
 3-21G
 ****


