%nproc=1
%NoSave
%Mem=1900MB
#P OB98/GEN NMR

erre ene a

0 1
  C     -193.371     212.730    -439.406
  O     -193.211     213.465    -438.187
  P     -194.113     214.742    -437.842
  C     -194.791     214.800    -435.355
  O     -195.137     214.355    -436.668
  C     -194.088     213.702    -434.550
  O     -192.889     213.271    -435.220
  C     -193.663     214.123    -433.147
  O     -194.766     214.102    -432.262
  C     -192.578     213.091    -432.848
  O     -193.167     211.854    -432.410
  C     -191.915     212.917    -434.218
  N     -186.926     213.219    -433.142
  C     -187.847     212.272    -432.881
  N     -189.161     212.270    -433.191
  C     -189.488     213.374    -433.875
  C     -188.651     214.433    -434.222
  C     -187.309     214.325    -433.819
  N     -186.372     215.302    -434.085
  N     -189.354     215.407    -434.897
  C     -190.585     214.942    -434.981
  N     -190.713     213.722    -434.379
  O     -194.764     215.379    -439.025
  O     -193.111     215.771    -437.132
  H     -193.578     212.019    -431.541
  H     -193.418     216.686    -437.279
  H     -187.484     211.407    -432.337
  H     -191.404     215.448    -435.466
  H     -191.637     211.877    -434.402
  H     -191.891     213.420    -432.060
  H     -193.214     215.122    -433.176
  H     -194.764     212.835    -434.503
  H     -195.712     215.101    -434.841
  H     -185.438     215.166    -433.733
  H     -186.665     216.150    -434.548
  H     -194.141     215.677    -435.444
  P     -195.712     215.395    -432.131
  C     -197.884     214.279    -432.913
  O     -196.882     215.231    -433.215
  O     -195.012     216.711    -432.145
  O     -196.481     215.157    -430.746
  H     -196.698     216.019    -430.345
  H     -197.524     213.273    -433.155
  H     -198.770     214.491    -433.520
  H     -198.164     214.318    -431.855
  H     -192.670     211.922    -439.430
  H     -193.196     213.378    -440.239
  H     -194.366     212.341    -439.460

 3  4  5  6  7  8  9  10  11  12  22  25  29  30  31  32 0
 6-311+G(2d,p)
 ****
 33  36  37 0
 6-311+G(2d,p)
 ****
 1  2  13  14  15  16  17  18  19  20  21  23  24  26 0
 3-21G
 ****
 27  28  34  35  38  39  40  41  42  43  44  45  46  47  48 0
 3-21G
 ****


