%nproc=1
%NoSave
%Mem=1900MB
#P OB98/GEN NMR

erre ene a

0 1
  C      276.984      23.930     443.523
  O      276.968      22.745     442.735
  P      277.711      22.695     441.307
  C      276.309      22.212     439.207
  O      276.592      23.143     440.241
  C      275.473      21.056     439.760
  O      274.258      21.597     440.337
  C      274.994      20.024     438.732
  O      275.946      19.005     438.423
  C      273.818      19.403     439.476
  O      274.300      18.462     440.445
  C      273.194      20.616     440.177
  N      268.343      20.002     438.666
  C      269.151      19.257     439.456
  N      270.445      19.475     439.792
  C      270.877      20.633     439.264
  C      270.172      21.512     438.446
  C      268.845      21.155     438.152
  N      268.022      21.925     437.367
  N      270.964      22.586     438.085
  C      272.114      22.361     438.688
  N      272.110      21.207     439.421
  O      278.402      21.411     441.016
  O      278.705      23.949     441.333
  H      274.675      17.704     439.949
  H      279.380      23.856     440.633
  H      268.698      18.348     439.858
  H      272.979      23.014     438.625
  H      272.821      20.379     441.175
  H      273.130      18.857     438.816
  H      274.631      20.514     437.822
  H      276.048      20.567     440.561
  H      277.253      21.816     438.819
  H      267.048      21.671     437.306
  H      268.334      22.864     437.112
  H      275.784      22.721     438.391
  P      275.983      18.471     436.907
  C      275.057      16.069     436.440
  O      274.790      17.409     436.793
  O      277.319      17.993     436.455
  O      275.441      19.732     436.076
  H      274.504      19.958     436.224
  H      274.137      15.480     436.568
  H      275.838      15.648     437.073
  H      275.358      16.014     435.385
  H      276.440      23.763     444.429
  H      276.529      24.729     442.975
  H      277.995      24.189     443.757

 3  4  5  6  7  8  9  10  11  12  22  25  29  30  31  32 0
 6-311+G(2d,p)
 ****
 33  36  37 0
 6-311+G(2d,p)
 ****
 1  2  13  14  15  16  17  18  19  20  21  23  24  26 0
 3-21G
 ****
 27  28  34  35  38  39  40  41  42  43  44  45  46  47  48 0
 3-21G
 ****


