%nproc=1
%NoSave
%Mem=1900MB
#P OB98/GEN NMR

erre ene a

0 1
  C      329.743     252.964     205.124
  O      328.912     253.384     204.068
  H      330.686     253.513     205.064
  H      329.948     251.894     205.026
  H      329.285     253.161     206.097
  P      327.336     253.109     204.168
  C      326.790     255.447     205.117
  O      326.569     254.515     204.058
  C      325.644     256.461     205.214
  O      325.779     257.448     204.164
  C      324.266     255.811     205.038
  O      323.706     255.301     206.240
  C      323.438     256.976     204.502
  O      322.873     257.754     205.565
  C      324.463     257.806     203.716
  N      323.752     259.948     199.123
  C      323.611     260.514     200.385
  N      323.183     261.798     200.407
  N      323.839     259.872     201.489
  C      324.154     258.564     201.313
  C      324.310     257.890     200.124
  C      324.128     258.631     198.889
  O      324.254     258.179     197.761
  N      324.594     256.563     200.327
  C      324.533     256.419     201.641
  N      324.346     257.622     202.280
  O      327.128     252.720     205.712
  O      326.815     252.020     203.278
  H      323.608     258.160     206.066
  H      326.388     252.090     205.792
  H      323.585     260.501     198.306
  H      324.657     255.484     202.175
  H      324.339     258.879     203.909
  H      322.604     256.611     203.898
  H      322.909     262.314     199.588
  H      324.304     255.033     204.278
  H      322.886     262.187     201.300
  H      325.722     256.996     206.171
  H      327.722     255.959     204.890
  H      326.914     254.920     206.061
  P      322.764     254.007     206.218
  C      324.551     252.189     206.857
  O      323.389     252.918     207.199
  O      323.031     253.395     204.770
  O      321.310     254.259     206.461
  H      322.317     253.655     204.142
  H      324.797     251.516     207.652
  H      325.364     252.867     206.699
  H      324.372     251.632     205.961

 6  7  8  9  10  11  12  13  14  15  26  29  33  34 0
 6-311+G(2d,p)
 ****
 36  38  39  40  41 0
 6-311+G(2d,p)
 ****
 1  2  3  4  5  16  17  18  19  20  21  22  23  24  25 0
 3-21G
 ****
 27  28  30  31  32  35  37  42  43  44  45  46  47 0
 3-21G
 ****
 48  49 0
 3-21G
 ****


