%nproc=1
%NoSave
%Mem=1900MB
#P OB98/GEN NMR

erre ene a

0 1
  C      856.404      83.446    -309.484
  O      857.766      83.516    -309.857
  P      858.296      84.594    -310.918
  C      857.484      85.384    -313.236
  O      857.131      84.718    -312.022
  C      856.679      84.840    -314.419
  O      857.092      83.466    -314.700
  C      855.150      84.828    -314.204
  O      854.576      85.081    -315.491
  C      854.899      83.397    -313.785
  O      853.532      83.011    -313.944
  C      855.902      82.639    -314.653
  N      856.188      81.305    -314.138
  C      855.282      80.295    -314.470
  O      854.257      80.570    -315.109
  N      855.522      79.021    -314.038
  C      856.525      78.792    -313.249
  N      856.724      77.502    -312.858
  C      857.430      79.845    -312.767
  C      857.224      81.071    -313.257
  O      859.656      84.333    -311.466
  O      858.170      85.989    -310.139
  H      853.445      82.076    -313.655
  H      858.913      86.088    -309.495
  H      858.224      79.620    -312.065
  H      857.836      81.909    -312.970
  H      855.530      82.547    -315.690
  H      855.148      83.277    -312.719
  H      854.808      85.558    -313.476
  H      856.927      85.442    -315.304
  H      856.084      76.808    -313.217
  H      858.542      85.209    -313.423
  H      857.520      77.200    -312.309
  H      857.331      86.463    -313.122
  P      853.027      85.503    -315.643
  C      850.784      84.711    -314.710
  O      852.195      84.569    -314.642
  O      852.526      85.539    -317.049
  O      852.943      86.951    -314.941
  H      852.116      87.387    -315.215
  H      850.320      83.844    -314.207
  H      850.440      84.746    -315.742
  H      850.475      85.626    -314.194
  H      856.270      82.661    -308.769
  H      855.807      83.246    -310.349
  H      856.104      84.378    -309.051

 3  4  5  6  7  8  9  10  11  12  13  23  27  28  29  30  32 0
 6-311+G(2d,p)
 ****
 34  35 0
 6-311+G(2d,p)
 ****
 1  2  14  15  16  17  18  19  20  21  22  24  25  26 0
 3-21G
 ****
 31  33  36  37  38  39  40  41  42  43  44  45  46 0
 3-21G
 ****


