%nproc=1
%NoSave
%Mem=1900MB
#P OB98/GEN NMR

erre ene a

0 1
  C     -615.927     474.666     694.197
  O     -615.841     474.911     692.803
  P     -616.822     474.149     691.782
  C     -618.398     474.963     689.916
  O     -617.231     475.250     690.686
  C     -618.230     475.503     688.478
  O     -618.329     476.941     688.467
  C     -616.897     475.167     687.824
  O     -616.872     473.819     687.397
  C     -616.847     476.193     686.716
  O     -617.588     475.757     685.581
  C     -617.524     477.422     687.373
  N     -616.555     478.427     687.812
  C     -615.845     479.080     686.798
  O     -616.046     478.779     685.610
  N     -614.918     480.033     687.141
  C     -614.681     480.274     688.387
  N     -613.747     481.219     688.673
  C     -615.371     479.589     689.491
  C     -616.280     478.681     689.135
  O     -617.957     473.419     692.418
  O     -615.822     473.198     690.985
  H     -617.116     474.971     685.216
  H     -615.533     472.420     691.525
  H     -615.154     479.824     690.521
  H     -616.848     478.111     689.881
  H     -618.206     477.908     686.668
  H     -615.807     476.399     686.380
  H     -616.071     475.360     688.538
  H     -619.059     475.093     687.868
  H     -613.270     481.652     687.891
  H     -619.250     475.458     690.386
  H     -613.458     481.462     689.616
  H     -618.570     473.880     689.902
  P     -615.492     473.153     686.922
  C     -614.334     470.892     687.358
  O     -615.208     471.911     687.881
  O     -614.351     474.103     686.747
  O     -615.876     472.449     685.533
  H     -615.162     472.655     684.880
  H     -613.967     470.288     688.200
  H     -613.503     471.316     686.822
  H     -614.921     470.260     686.690
  H     -615.200     475.260     694.709
  H     -615.740     473.630     694.389
  H     -616.906     474.923     694.545

 3  4  5  6  7  8  9  10  11  12  13  23  27  28  29  30  32 0
 6-311+G(2d,p)
 ****
 34  35 0
 6-311+G(2d,p)
 ****
 1  2  14  15  16  17  18  19  20  21  22  24  25  26 0
 3-21G
 ****
 31  33  36  37  38  39  40  41  42  43  44  45  46 0
 3-21G
 ****


