%nproc=1
%NoSave
%Mem=1900MB
#P OB98/GEN NMR

erre ene a

0 1
  C      -69.542     460.490     -25.569
  O      -69.549     459.326     -24.759
  P      -68.643     459.242     -23.440
  C      -70.566     459.863     -21.850
  O      -69.299     460.246     -22.371
  C      -70.608     460.052     -20.337
  O      -69.498     459.339     -19.742
  C      -70.495     461.510     -19.905
  O      -71.311     461.720     -18.748
  C      -69.039     461.673     -19.496
  O      -68.878     462.734     -18.541
  C      -68.722     460.270     -18.965
  N      -63.911     461.575     -17.736
  C      -65.101     462.121     -17.406
  N      -66.339     461.737     -17.790
  C      -66.276     460.634     -18.551
  C      -65.136     459.964     -18.968
  C      -63.905     460.477     -18.527
  N      -62.691     459.911     -18.853
  N      -65.469     458.887     -19.766
  C      -66.782     458.901     -19.820
  N      -67.319     459.930     -19.093
  O      -67.185     459.444     -23.662
  O      -68.960     457.801     -22.824
  H      -67.974     462.648     -18.168
  H      -68.148     457.407     -22.453
  H      -65.054     462.988     -16.751
  H      -67.391     458.199     -20.373
  H      -69.014     460.160     -17.915
  H      -68.435     461.916     -20.378
  H      -70.779     462.215     -20.698
  H      -71.532     459.608     -19.952
  H      -70.731     458.803     -22.084
  H      -61.873     460.270     -18.396
  H      -62.695     458.998     -19.296
  H      -71.353     460.449     -22.336
  P      -72.114     463.114     -18.698
  C      -74.543     462.179     -18.802
  O      -73.485     462.823     -19.475
  O      -71.284     464.258     -19.180
  O      -72.512     463.186     -17.149
  H      -72.550     462.293     -16.746
  H      -75.369     462.035     -19.501
  H      -74.892     462.799     -17.971
  H      -74.221     461.202     -18.425
  H      -70.206     460.353     -26.396
  H      -68.551     460.666     -25.933
  H      -69.863     461.330     -24.989

 3  4  5  6  7  8  9  10  11  12  22  25  29  30  31  32 0
 6-311+G(2d,p)
 ****
 33  36  37 0
 6-311+G(2d,p)
 ****
 1  2  13  14  15  16  17  18  19  20  21  23  24  26 0
 3-21G
 ****
 27  28  34  35  38  39  40  41  42  43  44  45  46  47  48 0
 3-21G
 ****


