%nproc=1
%NoSave
%Mem=1900MB
#P OB98/GEN NMR

erre ene a

0 1
  C     -588.490     -57.890    -293.194
  O     -589.577     -58.780    -293.374
  P     -590.844     -58.615    -292.398
  C     -592.648     -58.994    -294.229
  O     -592.037     -58.073    -293.331
  C     -593.090     -58.285    -295.498
  O     -591.937     -57.867    -296.259
  C     -593.915     -59.144    -296.448
  O     -595.276     -59.216    -296.056
  C     -593.763     -58.372    -297.755
  O     -594.697     -57.271    -297.775
  C     -592.322     -57.841    -297.657
  N     -589.032     -57.806    -301.512
  C     -589.833     -56.792    -301.018
  N     -589.716     -55.584    -301.624
  N     -590.669     -56.942    -300.026
  C     -590.644     -58.184    -299.497
  C     -589.904     -59.276    -299.900
  C     -589.017     -59.103    -301.032
  O     -588.332     -59.980    -301.552
  N     -590.142     -60.364    -299.099
  C     -590.997     -59.932    -298.196
  N     -591.359     -58.624    -298.414
  O     -590.457     -57.331    -291.517
  O     -591.153     -59.800    -291.551
  H     -595.587     -57.657    -297.685
  H     -590.922     -57.361    -290.663
  H     -588.395     -57.623    -302.272
  H     -591.379     -60.523    -297.373
  H     -592.259     -56.796    -297.986
  H     -593.962     -58.982    -298.638
  H     -589.004     -55.372    -302.303
  H     -593.477     -60.141    -296.564
  H     -590.271     -54.819    -301.253
  H     -593.649     -57.384    -295.213
  H     -593.523     -59.436    -293.746
  H     -591.928     -59.789    -294.461
  P     -595.823     -60.668    -295.619
  C     -596.638     -59.740    -293.329
  O     -595.804     -60.657    -294.020
  O     -594.622     -61.644    -296.018
  O     -597.108     -61.056    -296.268
  H     -594.956     -62.544    -296.181
  H     -597.591     -59.597    -293.852
  H     -596.122     -58.774    -293.248
  H     -596.841     -60.124    -292.330
  H     -587.724     -58.114    -293.907
  H     -588.099     -58.000    -292.204
  H     -588.826     -56.884    -293.335

 3  4  5  6  7  8  9  10  11  12  23  26  30  31  33  0
 6-311+G(2d,p)
 ****
 35  36  37  38 0
 6-311+G(2d,p)
 ****
 1  2  13  14  15  16  17  18  19  20  21  22  24  25  27  28  29 0
 3-21G
 ****
 32  34  39  40  41  42  43  44  45  46  47  48  49 0
 3-21G
 ****


