%nproc=1
%NoSave
%Mem=1900MB
#P OB98/GEN NMR

erre ene a

0 1
  C      -94.438    -671.365     330.567
  O      -94.067    -672.619     331.109
  H      -95.517    -671.368     330.385
  H      -93.920    -671.193     329.620
  H      -94.203    -670.565     331.276
  P      -92.510    -672.834     331.419
  C      -92.831    -675.405     331.474
  O      -92.188    -674.300     330.849
  C      -93.163    -676.481     330.444
  O      -94.237    -676.045     329.595
  C      -92.006    -676.841     329.520
  O      -91.148    -677.783     330.138
  C      -92.754    -677.460     328.353
  O      -93.091    -678.828     328.661
  C      -94.036    -676.613     328.277
  N      -96.784    -673.970     324.835
  C      -97.055    -675.106     325.519
  N      -96.257    -675.781     326.376
  C      -95.068    -675.165     326.503
  C      -94.651    -674.008     325.872
  C      -95.569    -673.396     325.004
  N      -95.290    -672.243     324.305
  N      -93.364    -673.678     326.245
  C      -93.036    -674.592     327.139
  N      -94.021    -675.535     327.302
  O      -92.086    -672.566     332.824
  O      -91.843    -671.883     330.316
  H      -93.692    -679.136     327.955
  H      -92.319    -671.956     329.472
  H      -98.040    -675.530     325.356
  H      -92.113    -674.600     327.705
  H      -94.917    -677.226     328.048
  H      -92.166    -677.480     327.435
  H      -91.468    -675.950     329.172
  H      -93.515    -677.371     330.993
  H      -93.746    -675.070     331.972
  H      -95.925    -671.983     323.564
  H      -94.344    -671.888     324.335
  H      -92.147    -675.798     332.234
  P      -89.553    -677.621     330.069
  C      -89.137    -679.741     331.460
  O      -88.977    -679.115     330.200
  O      -88.989    -676.624     331.026
  O      -89.259    -677.253     328.547
  H      -88.362    -676.877     328.455
  H      -88.717    -680.725     331.425
  H      -90.179    -679.806     331.696
  H      -88.636    -679.166     332.210

 6  7  8  9  10  11  12  13  14  15  25  28  32  33  34  35 0
 6-311+G(2d,p)
 ****
 36  39  40 0
 6-311+G(2d,p)
 ****
 1  2  3  4  5  16  17  18  19  20  21  22  23  24 0
 3-21G
 ****
 26  27  29  30  31  37  38  41  42  43  44  45  46  47 0
 3-21G
 ****
 48 0
 3-21G
 ****


