%nproc=1
%NoSave
%Mem=1900MB
#P OB98/GEN NMR

erre ene a

0 1
  C     -116.539     227.228      53.014
  O     -117.510     226.447      52.346
  H     -115.927     226.570      53.634
  H     -117.021     227.971      53.654
  H     -115.894     227.726      52.284
  P     -118.553     227.237      51.419
  C     -120.536     226.928      53.037
  O     -119.623     227.848      52.450
  C     -121.507     227.660      53.965
  O     -122.563     226.738      54.344
  C     -120.855     228.171      55.254
  O     -121.453     229.416      55.619
  C     -121.238     227.115      56.277
  O     -121.199     227.612      57.611
  C     -122.625     226.710      55.781
  N     -124.850     224.207      59.613
  C     -124.770     225.521      59.319
  N     -124.174     226.103      58.259
  C     -123.672     225.171      57.425
  C     -123.678     223.798      57.590
  C     -124.296     223.314      58.758
  N     -124.354     221.979      59.086
  N     -123.024     223.184      56.541
  C     -122.637     224.168      55.750
  N     -122.991     225.389      56.256
  O     -119.135     226.454      50.290
  O     -117.709     228.528      50.994
  H     -121.873     228.318      57.699
  H     -117.256     228.927      51.761
  H     -125.236     226.196      60.033
  H     -122.090     224.051      54.820
  H     -123.409     227.405      56.111
  H     -120.542     226.269      56.215
  H     -119.775     228.289      55.171
  H     -121.982     228.475      53.407
  H     -119.990     226.166      53.605
  H     -124.819     221.722      59.942
  H     -123.953     221.296      58.460
  H     -121.082     226.432      52.226
  P     -120.758     230.783      55.152
  C     -119.350     231.236      57.262
  O     -119.332     230.908      55.880
  O     -121.614     232.002      55.226
  O     -120.341     230.466      53.634
  H     -120.532     231.248      53.082
  H     -118.346     231.290      57.629
  H     -119.887     230.483      57.800
  H     -119.830     232.182      57.398

 6  7  8  9  10  11  12  13  14  15  25  28  32  33  34  35 0
 6-311+G(2d,p)
 ****
 36  39  40 0
 6-311+G(2d,p)
 ****
 1  2  3  4  5  16  17  18  19  20  21  22  23  24 0
 3-21G
 ****
 26  27  29  30  31  37  38  41  42  43  44  45  46  47 0
 3-21G
 ****
 48 0
 3-21G
 ****


