%nproc=1
%NoSave
%Mem=1900MB
#P OB98/GEN NMR

erre ene a

0 1
  C      126.653     548.123     450.811
  O      126.046     547.278     449.852
  P      126.958     546.148     449.161
  C      127.280     546.815     446.650
  O      127.780     546.854     447.992
  C      126.401     548.031     446.391
  O      127.060     549.243     446.856
  C      126.109     548.276     444.912
  O      125.089     547.418     444.446
  C      125.717     549.749     444.905
  O      124.333     549.908     445.274
  C      126.636     550.332     446.014
  N      127.767     551.065     445.455
  C      127.503     552.370     445.033
  O      126.387     552.876     445.098
  N      128.559     553.055     444.509
  C      129.815     552.568     444.311
  O      130.721     553.200     443.772
  C      130.030     551.155     444.737
  C      129.017     550.491     445.276
  O      125.902     545.225     448.386
  O      127.787     545.358     450.113
  H      123.807     549.468     444.575
  H      126.192     544.293     448.417
  H      128.389     554.002     444.221
  H      131.014     550.743     444.593
  H      129.143     549.465     445.591
  H      126.059     551.009     446.654
  H      125.844     550.201     443.919
  H      127.030     548.152     444.327
  H      125.465     547.924     446.968
  H      126.687     545.894     446.529
  H      128.118     546.777     445.963
  P      124.838     547.363     442.860
  C      122.592     548.528     442.192
  O      123.951     548.668     442.545
  O      123.834     546.131     442.751
  O      126.098     547.210     442.067
  H      123.252     546.046     443.522
  H      122.119     547.695     442.721
  H      122.509     548.361     441.113
  H      122.067     549.454     442.440
  H      125.930     548.819     451.181
  H      127.461     548.656     450.356
  H      127.027     547.532     451.621

 3  4  5  6  7  8  9  10  11  12  13  23  28  29  30  31  32 0
 6-311+G(2d,p)
 ****
 33  34 0
 6-311+G(2d,p)
 ****
 1  2  14  15  16  17  18  19  20  21  22  24  25  26 0
 3-21G
 ****
 27  35  36  37  38  39  40  41  42  43  44  45 0
 3-21G
 ****


