%nproc=1
%NoSave
%Mem=1900MB
#P OB98/GEN NMR

erre ene a

0 1
  C     -719.057     711.404    1948.612
  O     -719.620     710.540    1947.623
  P     -721.207     710.674    1947.362
  C     -721.670     708.809    1949.120
  O     -721.971     710.125    1948.663
  C     -722.398     708.528    1950.435
  O     -723.834     708.453    1950.220
  C     -722.015     707.223    1951.082
  O     -720.740     707.297    1951.694
  C     -723.157     707.017    1952.060
  O     -722.963     707.803    1953.222
  C     -724.366     707.559    1951.251
  N     -727.614     703.684    1952.036
  C     -727.018     704.530    1952.866
  N     -726.161     705.542    1952.583
  C     -725.944     705.623    1951.259
  C     -726.479     704.814    1950.251
  C     -727.364     703.802    1950.700
  N     -727.953     702.897    1949.822
  N     -726.038     705.207    1949.033
  C     -725.214     706.219    1949.248
  N     -725.146     706.487    1950.582
  O     -721.501     709.552    1946.230
  O     -721.629     712.046    1946.859
  H     -722.758     708.725    1952.941
  H     -721.694     709.975    1945.373
  H     -727.252     704.405    1953.936
  H     -724.646     706.731    1948.495
  H     -725.050     708.126    1951.858
  H     -723.267     705.954    1952.382
  H     -722.013     706.398    1950.323
  H     -722.188     709.367    1951.128
  H     -720.587     708.719    1949.264
  H     -728.513     702.162    1950.216
  H     -727.732     702.932    1948.851
  H     -721.963     708.102    1948.335
  P     -719.452     706.903    1950.795
  C     -719.468     704.656    1952.058
  O     -719.470     705.300    1950.779
  O     -718.239     707.224    1951.815
  O     -719.369     707.560    1949.461
  H     -718.432     706.883    1952.703
  H     -719.538     703.558    1951.895
  H     -720.366     704.982    1952.642
  H     -718.554     704.881    1952.596
  H     -718.006     711.219    1948.690
  H     -719.524     711.217    1949.557
  H     -719.220     712.423    1948.330

 3  4  5  6  7  8  9  10  11  12  22  25  29  30  31  32 0
 6-311+G(2d,p)
 ****
 33  36  37 0
 6-311+G(2d,p)
 ****
 1  2  13  14  15  16  17  18  19  20  21  23  24  26 0
 3-21G
 ****
 27  28  34  35  38  39  40  41  42  43  44  45  46  47  48 0
 3-21G
 ****


