%nproc=1
%NoSave
%Mem=1900MB
#P OB98/GEN NMR

erre ene a

0 1
  C      -42.763      23.833      30.183
  O      -42.041      22.956      29.337
  P      -42.527      21.431      29.255
  C      -42.972      19.616      31.073
  O      -42.226      20.758      30.677
  C      -42.040      18.590      31.721
  O      -41.022      18.174      30.784
  C      -41.288      19.129      32.930
  O      -42.110      19.150      34.084
  C      -40.125      18.152      33.030
  O      -40.512      16.960      33.731
  C      -39.840      17.843      31.546
  N      -38.660      18.539      31.044
  C      -37.434      17.954      31.349
  O      -37.331      16.926      32.018
  N      -36.326      18.613      30.892
  C      -36.320      19.803      30.223
  O      -35.289      20.374      29.887
  C      -37.643      20.390      29.955
  C      -38.733      19.745      30.377
  O      -41.466      20.743      28.275
  O      -43.926      21.252      28.771
  H      -39.718      16.391      33.773
  H      -41.908      20.064      27.730
  H      -35.430      18.193      31.079
  H      -37.675      21.334      29.427
  H      -39.716      20.167      30.202
  H      -39.687      16.765      31.408
  H      -39.273      18.577      33.569
  H      -40.896      20.131      32.712
  H      -42.632      17.709      31.997
  H      -43.452      19.175      30.195
  H      -43.752      19.923      31.775
  P      -41.858      20.338      35.135
  C      -39.820      20.940      36.655
  O      -40.460      19.987      35.833
  O      -42.972      20.003      36.236
  O      -41.974      21.693      34.522
  H      -43.131      19.047      36.318
  H      -40.545      21.532      37.219
  H      -39.211      21.602      36.036
  H      -39.169      20.415      37.359
  H      -42.329      24.810      30.138
  H      -42.723      23.471      31.189
  H      -43.782      23.880      29.861

 3  4  5  6  7  8  9  10  11  12  13  23  28  29  30  31  32 0
 6-311+G(2d,p)
 ****
 33  34 0
 6-311+G(2d,p)
 ****
 1  2  14  15  16  17  18  19  20  21  22  24  25  26 0
 3-21G
 ****
 27  35  36  37  38  39  40  41  42  43  44  45 0
 3-21G
 ****


