%nproc=1
%NoSave
%Mem=1900MB
#P OB98/GEN NMR

erre ene a

0 1
  C     -157.152    -223.871     682.624
  O     -158.318    -223.299     682.074
  P     -158.220    -222.062     681.060
  C     -159.708    -223.295     679.361
  O     -158.453    -222.655     679.585
  C     -159.500    -224.577     678.563
  O     -158.763    -225.562     679.334
  C     -160.796    -225.293     678.190
  O     -161.662    -224.643     677.287
  C     -160.270    -226.661     677.789
  O     -159.771    -226.654     676.447
  C     -159.115    -226.864     678.798
  N     -159.465    -227.810     679.858
  C     -159.398    -229.157     679.514
  O     -159.069    -229.560     678.401
  N     -159.760    -230.040     680.497
  C     -160.212    -229.723     681.736
  O     -160.572    -230.559     682.553
  C     -160.283    -228.276     682.038
  C     -159.913    -227.400     681.095
  O     -156.993    -221.220     681.204
  O     -159.585    -221.258     681.325
  H     -159.617    -227.583     676.186
  H     -160.391    -221.772     681.154
  H     -159.735    -231.022     680.263
  H     -160.635    -227.989     683.020
  H     -159.953    -226.329     681.294
  H     -158.221    -227.243     678.282
  H     -161.052    -227.427     677.833
  H     -161.382    -225.438     679.108
  H     -158.903    -224.347     677.677
  H     -160.355    -222.618     678.791
  H     -160.199    -223.493     680.324
  P     -163.232    -224.455     677.544
  C     -163.187    -221.905     677.077
  O     -163.492    -222.938     677.990
  O     -163.913    -225.532     678.321
  O     -163.804    -224.463     676.038
  H     -164.704    -224.839     676.043
  H     -163.388    -220.942     677.561
  H     -163.813    -221.982     676.186
  H     -162.129    -221.940     676.795
  H     -157.422    -224.678     683.272
  H     -156.620    -223.129     683.182
  H     -156.529    -224.240     681.836

 3  4  5  6  7  8  9  10  11  12  13  23  28  29  30  31  32 0
 6-311+G(2d,p)
 ****
 33  34 0
 6-311+G(2d,p)
 ****
 1  2  14  15  16  17  18  19  20  21  22  24  25  26  27 0
 3-21G
 ****
 35  36  37  38  39  40  41  42  43  44  45 0
 3-21G
 ****


