%nproc=1
%NoSave
%Mem=1900MB
#P OB98/GEN NMR

erre ene a

0 1
  C      293.668    -279.297     -67.465
  O      293.686    -279.093     -66.069
  H      293.885    -278.345     -67.960
  H      292.677    -279.633     -67.781
  H      294.424    -280.028     -67.763
  P      293.534    -280.357     -65.097
  C      290.996    -280.621     -65.487
  O      292.282    -281.215     -65.620
  C      289.895    -281.631     -65.828
  O      288.619    -280.940     -65.832
  C      290.070    -282.298     -67.195
  O      289.656    -283.660     -67.110
  C      289.124    -281.524     -68.089
  O      288.679    -282.295     -69.205
  C      288.003    -281.156     -67.116
  N      283.511    -278.835     -67.072
  C      283.920    -280.001     -66.450
  N      282.988    -280.660     -65.725
  N      285.131    -280.483     -66.535
  C      285.964    -279.711     -67.279
  C      285.684    -278.537     -67.939
  C      284.333    -278.027     -67.851
  O      283.910    -277.010     -68.394
  N      286.792    -278.063     -68.599
  C      287.734    -278.944     -68.335
  N      287.282    -279.969     -67.546
  O      293.497    -280.028     -63.637
  O      294.784    -281.285     -65.456
  H      288.497    -283.200     -68.874
  H      295.470    -281.233     -64.761
  H      282.565    -278.518     -66.979
  H      288.755    -278.892     -68.689
  H      287.262    -281.962     -67.013
  H      289.625    -280.624     -68.470
  H      282.043    -280.333     -65.596
  H      291.103    -282.252     -67.546
  H      283.267    -281.501     -65.237
  H      289.851    -282.380     -65.028
  H      290.940    -279.768     -66.174
  H      290.872    -280.259     -64.461
  P      290.764    -284.804     -66.917
  C      290.944    -285.408     -69.411
  O      291.627    -284.918     -68.267
  O      290.260    -286.103     -66.385
  O      291.798    -284.126     -65.894
  H      292.161    -284.821     -65.308
  H      291.617    -285.439     -70.242
  H      290.123    -284.761     -69.641
  H      290.577    -286.393     -69.212

 6  7  8  9  10  11  12  13  14  15  26  29  33  34 0
 6-311+G(2d,p)
 ****
 36  38  39  40  41 0
 6-311+G(2d,p)
 ****
 1  2  3  4  5  16  17  18  19  20  21  22  23  24  25 0
 3-21G
 ****
 27  28  30  31  32  35  37  42  43  44  45  46  47 0
 3-21G
 ****
 48  49 0
 3-21G
 ****


