%nproc=1
%NoSave
%Mem=1900MB
#P OB98/GEN NMR

erre ene a

0 1
  C      455.807    -786.234      22.133
  O      454.591    -786.867      22.554
  P      453.520    -787.489      21.524
  C      453.498    -790.077      21.653
  O      452.943    -788.849      22.151
  C      452.740    -791.273      22.216
  O      452.965    -791.397      23.648
  C      451.226    -791.217      22.083
  O      450.783    -791.436      20.745
  C      450.790    -792.297      23.063
  O      450.824    -793.601      22.470
  C      451.871    -792.198      24.165
  N      451.375    -791.637      25.411
  C      450.884    -792.558      26.358
  O      450.828    -793.751      26.089
  N      450.471    -792.092      27.572
  C      450.431    -790.803      27.789
  N      450.022    -790.388      29.021
  C      450.794    -789.791      26.769
  C      451.268    -790.266      25.624
  O      454.034    -787.634      20.128
  O      452.264    -786.479      21.573
  H      451.783    -786.544      20.723
  H      450.265    -793.563      21.674
  H      450.714    -788.735      26.989
  H      451.577    -789.615      24.822
  H      452.310    -793.190      24.367
  H      449.766    -792.136      23.440
  H      450.870    -790.241      22.433
  H      453.122    -792.183      21.737
  H      449.784    -791.100      29.699
  H      454.551    -790.139      21.956
  H      449.975    -789.413      29.299
  H      453.465    -790.063      20.560
  P      449.496    -790.616      20.267
  C      450.655    -789.129      18.459
  O      449.755    -790.174      18.731
  O      449.601    -789.236      21.063
  O      448.187    -791.297      20.516
  H      448.718    -788.952      21.354
  H      451.064    -789.268      17.460
  H      451.469    -789.100      19.195
  H      450.116    -788.171      18.486
  H      456.352    -785.902      22.992
  H      455.575    -785.395      21.511
  H      456.401    -786.933      21.582

 3  4  5  6  7  8  9  10  11  12  13  24  27  28  29  30  32 0
 6-311+G(2d,p)
 ****
 34  35 0
 6-311+G(2d,p)
 ****
 1  2  14  15  16  17  18  19  20  21  22  23  25  26 0
 3-21G
 ****
 31  33  36  37  38  39  40  41  42  43  44  45  46 0
 3-21G
 ****


