%nproc=1
%NoSave
%Mem=1900MB
#P OB98/GEN NMR

erre ene a

0 1
  C     -204.219    -496.505      72.791
  O     -202.858    -496.159      72.950
  H     -204.523    -497.135      73.629
  H     -204.363    -497.068      71.856
  H     -204.848    -495.609      72.782
  P     -202.226    -495.213      71.826
  C     -200.862    -493.844      73.584
  O     -201.859    -493.841      72.552
  C     -199.861    -492.707      73.377
  O     -199.008    -493.044      72.239
  C     -200.506    -491.351      73.060
  O     -199.635    -490.313      73.544
  C     -200.493    -491.344      71.527
  O     -200.759    -490.065      71.017
  C     -199.119    -491.956      71.280
  N     -196.884    -491.086      66.768
  C     -196.802    -490.446      67.954
  N     -197.416    -490.732      69.113
  C     -198.174    -491.857      68.988
  C     -198.323    -492.635      67.859
  C     -197.642    -492.208      66.699
  N     -197.726    -492.874      65.500
  N     -199.169    -493.697      68.108
  C     -199.512    -493.558      69.373
  N     -198.941    -492.449      69.939
  O     -203.496    -494.822      70.918
  O     -201.124    -495.814      71.026
  H     -200.874    -490.104      70.042
  H     -203.542    -495.425      70.156
  H     -196.166    -489.559      67.970
  H     -200.170    -494.227      69.921
  H     -198.315    -491.241      71.503
  H     -201.294    -492.016      71.143
  H     -201.511    -491.226      73.496
  H     -199.197    -492.645      74.244
  H     -200.352    -494.803      73.565
  H     -201.373    -493.724      74.559
  H     -197.218    -492.490      64.714
  H     -198.307    -493.683      65.419
  P     -200.047    -489.466      74.835
  C     -197.984    -490.472      76.102
  O     -199.368    -490.154      76.130
  O     -201.585    -489.887      75.028
  O     -199.904    -487.984      74.737
  H     -202.064    -489.151      75.489
  H     -197.702    -490.918      77.033
  H     -197.416    -489.579      75.947
  H     -197.792    -491.159      75.305

 6  7  8  9  10  11  12  13  14  15  25  28  32  33  34  35 0
 6-311+G(2d,p)
 ****
 36  37  40 0
 6-311+G(2d,p)
 ****
 1  2  3  4  5  16  17  18  19  20  21  22  23  24 0
 3-21G
 ****
 26  27  29  30  31  38  39 41  42  43  44  45  46  47  48 0
 3-21G
 ****


