%nproc=1
%NoSave
%Mem=1900MB
#P OB98/GEN NMR

erre ene a

0 1
  C     -934.376     278.380     502.006
  O     -934.757     277.149     501.434
  H     -933.375     278.648     501.655
  H     -934.343     278.274     503.099
  H     -935.069     279.178     501.733
  P     -936.309     276.759     501.485
  C     -937.070     278.126     499.410
  O     -936.854     276.837     499.974
  C     -936.523     278.169     497.974
  O     -935.066     278.339     498.039
  C     -936.807     276.902     497.144
  O     -937.057     277.290     495.796
  C     -935.482     276.173     497.194
  O     -935.323     275.270     496.100
  C     -934.501     277.342     497.170
  N     -930.625     274.399     495.943
  C     -931.732     274.762     495.215
  N     -931.880     274.213     493.993
  N     -932.640     275.600     495.660
  C     -932.370     276.091     496.893
  C     -931.309     275.800     497.710
  C     -930.312     274.871     497.223
  O     -929.320     274.487     497.816
  N     -931.427     276.466     498.911
  C     -932.569     277.123     498.824
  N     -933.179     276.935     497.617
  O     -936.969     278.044     502.188
  O     -936.629     275.498     502.216
  H     -934.440     274.864     496.159
  H     -937.052     277.884     503.148
  H     -929.955     273.742     495.573
  H     -932.997     277.740     499.600
  H     -934.391     277.783     496.181
  H     -935.388     275.597     498.127
  H     -931.210     273.590     493.571
  H     -937.637     276.311     497.517
  H     -932.668     274.503     493.434
  H     -936.926     279.063     497.477
  H     -936.550     278.869     500.016
  H     -938.139     278.342     499.421
  P     -938.116     276.435     494.941
  C     -939.859     278.288     494.389
  O     -938.855     277.407     493.905
  O     -939.266     276.111     496.015
  O     -937.553     275.184     494.359
  H     -939.646     275.224     495.844
  H     -940.250     278.864     493.576
  H     -939.435     278.945     495.120
  H     -940.648     277.719     494.835

 6  7  8  9  10  11  12  13  14  15  26  29  33  34 0
 6-311+G(2d,p)
 ****
 36  38  39  40  41 0
 6-311+G(2d,p)
 ****
 1  2  3  4  5  16  17  18  19  20  21  22  23  24  25 0
 3-21G
 ****
 27  28  30  31  32  35  37  42  43  44  45  46  47 0
 3-21G
 ****
 48  49 0
 3-21G
 ****


