%nproc=1
%NoSave
%Mem=1900MB
#P OB98/GEN NMR

erre ene a

0 1
  C      513.755      22.994     440.817
  O      512.738      23.767     440.214
  H      514.094      23.501     441.723
  H      514.603      22.893     440.131
  H      513.374      22.005     441.083
  P      511.952      23.083     438.997
  C      512.676      22.264     436.612
  O      513.054      22.548     437.951
  C      513.451      23.160     435.649
  O      513.112      24.546     435.858
  C      514.956      23.125     435.835
  O      515.537      21.923     435.368
  C      515.370      24.345     435.025
  O      515.499      24.043     433.630
  C      514.190      25.317     435.270
  N      514.576      26.445     436.097
  C      514.689      27.675     435.421
  O      514.453      27.736     434.216
  N      515.109      28.770     436.115
  C      515.417      28.651     437.381
  N      515.866      29.779     438.004
  C      515.309      27.381     438.123
  C      514.888      26.330     437.429
  O      511.322      24.348     438.245
  O      510.953      22.048     439.398
  H      515.866      24.847     433.208
  H      511.956      25.059     438.073
  H      515.567      27.345     439.171
  H      514.786      25.359     437.898
  H      513.812      25.702     434.314
  H      516.336      24.739     435.352
  H      515.213      23.307     436.886
  H      513.169      22.884     434.619
  H      515.969      30.612     437.442
  H      511.603      22.395     436.477
  H      516.202      29.789     438.953
  H      512.906      21.207     436.419
  P      516.574      21.098     436.262
  C      519.081      20.647     435.842
  O      518.042      21.630     435.867
  O      516.433      19.617     436.215
  O      516.384      21.733     437.722
  H      516.554      22.683     437.780
  H      520.005      21.112     435.569
  H      518.838      19.889     435.127
  H      519.177      20.205     436.812

 6  7  8  9  10  11  12  13  14  15  16  26  30  31  32  33  35 0
 6-311+G(2d,p)
 ****
 37  38 0
 6-311+G(2d,p)
 ****
 1  2  3  4  5  17  18  19  20  21  22  23  24  25 0
 3-21G
 ****
 27  28  29  34  36  39  40  41  42  43  44  45  46 0
 3-21G
 ****


