%nproc=1
%NoSave
%Mem=1900MB
#P OB98/GEN NMR

erre ene a

0 1
  C      169.194     125.460     -85.786
  O      169.441     126.818     -86.088
  H      169.466     125.280     -84.740
  H      169.807     124.814     -86.421
  H      168.136     125.217     -85.920
  P      168.971     127.389     -87.513
  C      169.296     126.686     -89.974
  O      169.759     126.555     -88.634
  C      170.388     126.252     -90.949
  O      171.462     127.221     -90.950
  C      171.044     124.923     -90.591
  O      170.205     123.828     -90.911
  C      172.329     125.011     -91.394
  O      172.111     124.639     -92.760
  C      172.678     126.514     -91.285
  N      173.727     126.764     -90.296
  C      174.983     127.083     -90.801
  O      175.232     127.167     -92.003
  N      175.979     127.240     -89.871
  C      175.867     126.978     -88.533
  O      176.834     126.892     -87.780
  C      174.503     126.705     -88.048
  C      173.513     126.601     -88.941
  O      169.031     128.874     -87.665
  O      167.469     126.849     -87.659
  H      166.846     127.575     -87.458
  H      172.932     124.880     -93.240
  H      176.905     127.430     -90.233
  H      174.361     126.565     -86.983
  H      172.504     126.367     -88.611
  H      173.012     126.901     -92.255
  H      173.102     124.354     -90.986
  H      171.294     124.909     -89.521
  H      169.958     126.218     -91.959
  H      169.037     127.737     -90.158
  H      168.397     126.071     -90.102
  P      170.208     122.512     -89.995
  C      171.663     120.410     -89.708
  O      171.584     121.726     -90.245
  O      168.980     121.670     -90.090
  O      170.394     123.078     -88.505
  H      169.711     122.680     -87.928
  H      172.620     119.989     -89.936
  H      170.894     119.803     -90.138
  H      171.535     120.450     -88.646

 6  7  8  9  10  11  12  13  14  15  16  27  31  32  33  34  35 0
 6-311+G(2d,p)
 ****
 36  37 0
 6-311+G(2d,p)
 ****
 1  2  3  4  5  17  18  19  20  21  22  23  24  25 0
 3-21G
 ****
 26  28  29  30  38  39  40  41  42  43  44  45 0
 3-21G
 ****


