%nproc=1
%NoSave
%Mem=1900MB
#P OB98/GEN NMR

erre ene a

0 1
  C       21.865     -20.626      90.109
  O       21.273     -21.126      88.928
  H       22.827     -21.124      90.259
  H       21.225     -20.831      90.972
  H       22.033     -19.550      90.021
  P       19.797     -20.590      88.590
  C       18.567     -22.858      88.979
  O       18.843     -21.550      89.456
  C       17.205     -23.315      89.489
  O       16.702     -24.408      88.690
  C       17.219     -23.834      90.923
  O       17.239     -22.794      91.886
  C       15.911     -24.602      90.948
  O       14.810     -23.680      91.047
  C       15.939     -25.286      89.561
  N       16.534     -26.622      89.592
  C       15.721     -27.661      90.063
  O       14.572     -27.436      90.437
  N       16.243     -28.931      90.130
  C       17.464     -29.149      89.752
  N       17.933     -30.422      89.853
  C       18.348     -28.088      89.234
  C       17.826     -26.866      89.183
  O       19.542     -21.103      87.095
  O       19.568     -19.130      88.787
  H       13.998     -24.214      91.109
  H       18.605     -20.930      86.837
  H       19.362     -28.317      88.941
  H       18.419     -26.035      88.816
  H       14.929     -25.363      89.142
  H       15.833     -25.289      91.793
  H       18.041     -24.537      91.090
  H       16.503     -22.478      89.375
  H       17.325     -31.114      90.269
  H       19.352     -23.530      89.341
  H       18.914     -30.650      89.755
  H       18.566     -22.866      87.885
  P       18.386     -22.840      93.009
  C       16.652     -23.470      94.835
  O       17.863     -23.809      94.175
  O       18.301     -21.388      93.672
  O       19.759     -23.142      92.495
  H       19.189     -21.045      93.886
  H       16.435     -24.205      95.582
  H       15.854     -23.439      94.123
  H       16.754     -22.511      95.298

 6  7  8  9  10  11  12  13  14  15  16  26  30  31  32  33  35 0
 6-311+G(2d,p)
 ****
 37  38 0
 6-311+G(2d,p)
 ****
 1  2  3  4  5  17  18  19  20  21  22  23  24  25 0
 3-21G
 ****
 27  28  29  34  36  39  40  41  42  43  44  45  46 0
 3-21G
 ****


