%nproc=1
%NoSave
%Mem=1900MB
#P OB98/GEN NMR

erre ene a

0 1
  C       90.807      14.986    -892.800
  O       90.106      16.169    -892.470
  H       91.505      14.749    -891.990
  H       91.367      15.121    -893.720
  H       90.100      14.150    -892.910
  P       88.996      16.656    -893.520
  C       87.190      16.507    -891.650
  O       87.590      16.126    -892.960
  C       85.665      16.576    -891.550
  O       85.170      17.412    -892.660
  C       84.973      15.200    -891.690
  O       83.748      15.233    -890.930
  C       84.653      15.165    -893.180
  O       83.690      14.173    -893.450
  C       84.216      16.601    -893.380
  N       81.676      16.141    -897.780
  C       81.412      15.694    -896.550
  N       82.127      15.871    -895.420
  C       83.221      16.611    -895.660
  C       83.639      17.135    -896.890
  C       82.798      16.853    -897.990
  N       83.091      17.292    -899.270
  N       84.819      17.825    -896.750
  C       85.129      17.713    -895.450
  N       84.186      16.991    -894.770
  O       89.266      15.731    -894.800
  O       89.031      18.114    -893.870
  H       83.616      13.989    -894.400
  H       89.878      16.182    -895.410
  H       80.483      15.126    -896.440
  H       86.006      18.147    -894.990
  H       83.213      16.809    -892.960
  H       85.545      14.936    -893.780
  H       85.592      14.375    -891.350
  H       85.375      17.065    -890.620
  H       87.623      17.486    -891.410
  H       87.557      15.765    -890.920
  H       82.456      17.040    -900.000
  H       83.946      17.807    -899.440
  P       83.722      14.618    -889.460
  C       82.696      16.794    -888.440
  O       83.714      15.808    -888.360
  O       85.228      14.052    -889.310
  O       82.731      13.527    -889.230
  H       85.206      13.159    -888.920
  H       82.825      17.505    -887.651
  H       81.738      16.326    -888.345
  H       82.757      17.294    -889.384

 6  7  8  9  10  11  12  13  14  15  25  28  32  33  34  35 0
 6-311+G(2d,p)
 ****
 36  37  40 0
 6-311+G(2d,p)
 ****
 1  2  3  4  5  16  17  18  19  20  21  22  23  24 0
 3-21G
 ****
 26  27  29  30  31  38  39 41  42  43  44  45  46  47  48 0
 3-21G
 ****


