%nproc=1
%NoSave
%Mem=1900MB
#P OB98/GEN NMR

erre ene a

0 1
  C      -14.555     353.826    -169.043
  O      -13.874     353.844    -170.294
  P      -12.387     353.249    -170.367
  C      -10.991     352.323    -172.415
  O      -11.858     353.295    -171.874
  C      -10.883     352.531    -173.938
  O      -12.107     352.113    -174.584
  C      -10.637     353.984    -174.328
  O       -9.261     354.311    -174.320
  C      -11.266     354.043    -175.710
  O      -10.390     353.454    -176.684
  C      -12.523     353.162    -175.509
  N      -13.744     353.800    -174.973
  C      -14.530     354.594    -175.806
  O      -14.284     354.815    -176.987
  N      -15.655     355.134    -175.234
  C      -16.160     354.840    -174.004
  O      -17.201     355.304    -173.564
  C      -15.368     353.882    -173.220
  C      -14.216     353.424    -173.724
  O      -12.583     351.694    -170.071
  O      -11.421     353.887    -169.411
  H       -9.636     354.060    -176.802
  H      -12.143     351.447    -169.238
  H      -16.197     355.770    -175.804
  H      -15.753     353.581    -172.253
  H      -13.627     352.712    -173.151
  H      -12.807     352.676    -176.444
  H      -11.425     355.074    -176.026
  H      -11.204     354.655    -173.672
  H      -10.067     351.901    -174.311
  H      -11.355     351.314    -172.201
  H      -10.005     352.409    -171.945
  P       -8.536     354.669    -172.936
  C       -6.187     354.172    -172.041
  O       -6.967     354.407    -173.192
  O       -9.107     354.033    -171.714
  O       -8.615     356.269    -172.869
  H       -9.385     356.561    -172.333
  H       -5.184     353.856    -172.358
  H       -6.628     353.380    -171.426
  H       -6.098     355.090    -171.453
  H      -15.528     354.255    -169.161
  H      -13.999     354.394    -168.326
  H      -14.649     352.816    -168.703

 3  4  5  6  7  8  9  10  11  12  13  23  28  29  30  31  32 0
 6-311+G(2d,p)
 ****
 33  34 0
 6-311+G(2d,p)
 ****
 1  2  14  15  16  17  18  19  20  21  22  24  25  26  27 0
 3-21G
 ****
 35  36  37  38  39  40  41  42  43  44  45 0
 3-21G
 ****


