%nproc=1
%NoSave
%Mem=1900MB
#P OB98/GEN NMR

erre ene a

0 1
  C     -894.690     196.368    -476.083
  O     -894.900     194.985    -476.398
  P     -896.260     194.207    -476.200
  C     -895.710     192.669    -478.244
  O     -896.120     192.759    -476.891
  C     -895.620     191.212    -478.741
  O     -894.480     190.548    -478.141
  C     -896.860     190.421    -478.279
  O     -898.060     190.475    -479.040
  C     -896.330     188.990    -478.057
  O     -896.510     188.170    -479.214
  C     -894.850     189.226    -477.763
  N     -893.800     185.723    -474.174
  C     -894.180     185.522    -475.486
  N     -894.350     184.249    -475.894
  N     -894.390     186.508    -476.323
  C     -894.260     187.726    -475.770
  C     -893.910     188.058    -474.488
  C     -893.620     186.967    -473.560
  O     -893.270     187.082    -472.396
  N     -893.900     189.425    -474.276
  C     -894.290     189.923    -475.440
  N     -894.510     188.953    -476.390
  O     -897.520     194.984    -476.496
  O     -896.260     193.865    -474.604
  H     -896.420     187.235    -478.921
  H     -897.190     193.886    -474.325
  H     -893.620     184.936    -473.558
  H     -894.400     190.983    -475.653
  H     -894.230     188.543    -478.384
  H     -896.880     188.523    -477.248
  H     -894.310     183.454    -475.256
  H     -897.130     190.783    -477.298
  H     -894.830     184.117    -476.769
  H     -895.460     191.171    -479.813
  H     -894.730     193.155    -478.332
  H     -896.400     193.222    -478.888
  P     -899.120     191.680    -479.008
  C     -899.190     191.134    -481.527
  O     -899.910     191.685    -480.434
  O     -898.200     193.009    -479.125
  O     -900.000     191.729    -477.810
  H     -898.720     193.788    -478.858
  H     -899.660     191.441    -482.467
  H     -899.240     190.030    -481.482
  H     -898.130     191.443    -481.539
  H     -893.681     196.637    -476.314
  H     -894.872     196.528    -475.041
  H     -895.361     196.971    -476.659

 3  4  5  6  7  8  9  10  11  12  23  26  30  31 0
 6-311+G(2d,p)
 ****
 33  35  36  37  38 0
 6-311+G(2d,p)
 ****
 1  2  13  14  15  16  17  18  19  20  21  22  24  25 0
 3-21G
 ****
 27  28  29  32  34  39  40  41  42  43  44  45  46  47  48  49 0
 3-21G
 ****


