%nproc=1
%NoSave
%Mem=1900MB
#P OB98/GEN NMR

erre ene a

0 1
  C       34.369     114.387       5.039
  O       35.352     115.282       5.561
  P       35.174     115.853       7.048
  C       35.266     118.423       6.891
  O       34.433     117.276       6.969
  C       34.641     119.603       7.647
  O       33.345     119.948       7.078
  C       34.413     119.295       9.132
  O       34.576     120.482       9.925
  C       32.947     118.908       9.175
  O       32.405     119.041      10.487
  C       32.370     119.869       8.138
  N       27.291     120.120       8.735
  C       28.304     120.739       9.382
  N       29.630     120.641       9.153
  C       29.874     119.811       8.126
  C       28.945     119.117       7.367
  C       27.594     119.289       7.711
  N       26.565     118.636       7.072
  N       29.570     118.355       6.400
  C       30.857     118.550       6.605
  N       31.090     119.445       7.613
  O       36.397     115.828       7.901
  O       34.032     114.906       7.656
  H       32.178     119.980      10.616
  H       34.266     114.674       8.576
  H       28.008     121.396      10.195
  H       31.655     118.061       6.065
  H       32.245     120.879       8.546
  H       32.829     117.866       8.858
  H       35.058     118.510       9.539
  H       35.285     120.482       7.530
  H       35.425     118.693       5.845
  H       25.640     118.732       7.463
  H       26.787     117.905       6.410
  H       36.256     118.174       7.290
  P       35.543     120.348      11.206
  C       33.662     119.507      12.815
  O       34.871     119.237      12.142
  O       35.857     121.655      11.854
  O       36.821     119.618      10.579
  H       36.621     118.824      10.055
  H       33.311     118.588      13.290
  H       32.896     119.852      12.116
  H       33.824     120.262      13.589
  H       34.638     114.104       4.043
  H       33.415     114.872       5.027
  H       34.317     113.515       5.656

 3  4  5  6  7  8  9  10  11  12  22  25  29  30  31  32 0
 6-311+G(2d,p)
 ****
 33  36  37 0
 6-311+G(2d,p)
 ****
 1  2  13  14  15  16  17  18  19  20  21  23  24  26 0
 3-21G
 ****
 27  28  34  35  38  39  40  41  42  43  44  45  46  47  48 0
 3-21G
 ****


