%nproc=1
%NoSave
%Mem=1900MB
#P OB98/GEN NMR

erre ene a

0 1
  C      -23.077    -180.593    -306.936
  O      -22.080    -179.640    -307.240
  P      -20.725    -179.999    -308.004
  C      -18.969    -178.305    -307.110
  O      -19.863    -178.649    -308.162
  C      -18.523    -176.834    -307.157
  O      -17.860    -176.575    -308.412
  C      -19.750    -175.912    -307.121
  O      -20.349    -175.575    -305.884
  C      -19.377    -174.725    -308.004
  O      -18.922    -173.604    -307.246
  C      -18.253    -175.273    -308.880
  N      -20.385    -172.991    -312.870
  C      -19.968    -172.439    -311.675
  N      -20.340    -171.162    -311.452
  N      -19.270    -173.093    -310.782
  C      -19.058    -174.390    -311.107
  C      -19.411    -175.043    -312.266
  C      -20.144    -174.297    -313.265
  O      -20.603    -174.771    -314.298
  N      -19.097    -176.377    -312.219
  C      -18.588    -176.543    -311.013
  N      -18.584    -175.374    -310.288
  O      -20.837    -180.920    -309.178
  O      -19.912    -180.786    -306.853
  H      -18.668    -172.904    -307.872
  H      -19.383    -181.481    -307.290
  H      -20.988    -172.457    -313.489
  H      -18.246    -177.488    -310.608
  H      -17.362    -174.637    -308.808
  H      -20.248    -174.381    -308.574
  H      -20.994    -170.674    -312.046
  H      -20.549    -176.430    -307.670
  H      -20.198    -170.783    -310.522
  H      -17.790    -176.620    -306.379
  H      -18.104    -178.972    -307.181
  H      -19.448    -178.500    -306.144
  P      -21.863    -175.861    -305.455
  C      -22.398    -173.378    -305.150
  O      -22.363    -174.653    -304.531
  O      -21.753    -177.078    -304.420
  O      -22.782    -176.217    -306.580
  H      -22.607    -177.546    -304.369
  H      -22.454    -172.609    -304.377
  H      -23.286    -173.306    -305.784
  H      -21.503    -173.212    -305.758
  H      -23.885    -180.113    -306.424
  H      -22.662    -181.356    -306.311
  H      -23.439    -181.032    -307.842

 3  4  5  6  7  8  9  10  11  12  23  26  30  31 0
 6-311+G(2d,p)
 ****
 33  35  36  37  38 0
 6-311+G(2d,p)
 ****
 1  2  13  14  15  16  17  18  19  20  21  22  24  25 0
 3-21G
 ****
 27  28  29  32  34  39  40  41  42  43  44  45  46  47  48  49 0
 3-21G
 ****


