%nproc=1
%NoSave
%Mem=1900MB
#P OB98/GEN NMR

erre ene a

0 1
  C       41.441     333.265       0.700
  O       42.354     333.493       1.756
  H       40.428     333.241       1.111
  H       41.651     332.305       0.221
  H       41.506     334.071      -0.036
  P       43.909     333.501       1.360
  C       45.367     335.057      -0.114
  O       44.066     334.564       0.166
  C       45.592     335.144      -1.622
  O       45.632     333.826      -2.209
  C       44.521     335.927      -2.373
  O       44.782     337.320      -2.323
  C       44.663     335.352      -3.775
  O       45.776     335.954      -4.471
  C       44.941     333.870      -3.486
  N       41.367     331.632      -6.265
  C       42.379     332.492      -6.640
  N       42.436     332.831      -7.948
  N       43.256     332.990      -5.809
  C       43.047     332.613      -4.525
  C       42.079     331.771      -4.027
  C       41.150     331.185      -4.967
  O       40.284     330.354      -4.709
  N       42.206     331.618      -2.668
  C       43.224     332.392      -2.345
  N       43.764     333.022      -3.437
  O       44.115     332.091       0.626
  O       44.860     333.659       2.497
  H       46.607     335.619      -4.092
  H       44.991     331.736       0.869
  H       40.740     331.257      -6.953
  H       43.611     332.524      -1.343
  H       45.611     333.428      -4.232
  H       43.778     335.548      -4.382
  H       41.642     332.722      -8.561
  H       43.520     335.697      -1.987
  H       43.132     333.518      -8.206
  H       46.581     335.595      -1.781
  H       46.105     334.377       0.324
  H       45.483     336.049       0.334
  P       43.535     338.325      -2.353
  C       41.826     339.150      -0.581
  O       42.694     338.107      -1.003
  O       42.598     337.695      -3.488
  O       43.883     339.740      -2.670
  H       42.652     338.235      -4.298
  H       41.338     338.862       0.326
  H       41.093     339.332      -1.339
  H       42.394     340.041      -0.413

 6  7  8  9  10  11  12  13  14  15  26  29  33  34 0
 6-311+G(2d,p)
 ****
 36  38  39  40  41 0
 6-311+G(2d,p)
 ****
 1  2  3  4  5  16  17  18  19  20  21  22  23  24  25 0
 3-21G
 ****
 27  28  30  31  32  35  37  42  43  44  45  46  47 0
 3-21G
 ****
 48  49 0
 3-21G
 ****


