%nproc=1
%NoSave
%Mem=1900MB
#P OB98/GEN NMR

erre ene a

0 1
  C      204.012    -275.182     251.374
  O      205.260    -275.163     252.071
  P      205.452    -276.279     253.209
  C      206.319    -278.725     253.298
  O      205.849    -277.659     252.488
  C      207.062    -279.760     252.451
  O      206.265    -280.243     251.353
  C      208.345    -279.227     251.829
  O      209.386    -279.224     252.793
  C      208.578    -280.217     250.695
  O      209.256    -281.402     251.169
  C      207.149    -280.560     250.246
  N      207.174    -280.564     245.178
  C      207.875    -281.359     246.067
  N      208.673    -282.305     245.528
  N      207.789    -281.238     247.366
  C      206.952    -280.250     247.762
  C      206.186    -279.419     246.979
  C      206.289    -279.561     245.543
  O      205.678    -278.898     244.713
  N      205.411    -278.582     247.744
  C      205.806    -278.826     248.981
  N      206.690    -279.872     249.050
  O      203.961    -276.531     253.734
  O      206.360    -275.852     254.313
  H      210.167    -281.168     251.420
  H      203.864    -276.177     254.638
  H      207.279    -280.697     244.186
  H      205.463    -278.295     249.856
  H      207.039    -281.633     250.043
  H      209.211    -279.798     249.910
  H      208.779    -282.456     244.540
  H      208.176    -278.220     251.422
  H      209.186    -282.904     246.165
  H      207.294    -280.613     253.104
  H      205.486    -279.200     253.815
  H      206.976    -278.313     254.074
  P      210.555    -278.136     252.629
  C      210.659    -275.564     252.958
  O      210.055    -276.787     253.332
  O      210.515    -277.795     251.062
  O      211.905    -278.613     253.042
  H      211.426    -277.764     250.713
  H      209.928    -274.761     253.080
  H      210.999    -275.582     251.918
  H      211.514    -275.372     253.613
  H      203.999    -274.399     250.645
  H      203.213    -275.035     252.070
  H      203.891    -276.126     250.885

 3  4  5  6  7  8  9  10  11  12  23  26  30  31 0
 6-311+G(2d,p)
 ****
 33  35  36  37  38 0
 6-311+G(2d,p)
 ****
 1  2  13  14  15  16  17  18  19  20  21  22  24  25 0
 3-21G
 ****
 27  28  29  32  34  39  40  41  42  43  44  45  46  47  48  49 0
 3-21G
 ****


