%nproc=1
%NoSave
%Mem=1900MB
#P OB98/GEN NMR

erre ene a

0 1
  C     -530.598    -138.049    -684.367
  O     -529.521    -138.129    -683.457
  H     -530.219    -137.661    -685.322
  H     -531.358    -137.359    -683.990
  H     -531.037    -139.036    -684.542
  P     -529.762    -138.839    -682.036
  C     -527.814    -140.478    -682.489
  O     -528.367    -139.501    -681.605
  C     -526.355    -140.769    -682.130
  O     -525.520    -139.683    -682.661
  C     -526.065    -140.844    -680.613
  O     -524.970    -141.759    -680.440
  C     -525.652    -139.416    -680.318
  O     -525.082    -139.264    -679.043
  C     -524.760    -139.154    -681.543
  N     -524.405    -137.758    -681.772
  C     -523.081    -137.381    -681.544
  O     -522.195    -138.150    -681.161
  N     -522.792    -136.048    -681.758
  C     -523.669    -135.103    -682.186
  O     -523.353    -133.946    -682.399
  C     -525.058    -135.558    -682.414
  C     -525.350    -136.846    -682.206
  O     -530.944    -139.742    -681.959
  O     -529.891    -137.605    -681.019
  H     -530.831    -137.455    -680.808
  H     -525.751    -139.494    -678.366
  H     -521.841    -135.774    -681.609
  H     -525.777    -134.820    -682.731
  H     -526.358    -137.213    -682.357
  H     -523.855    -139.750    -681.463
  H     -526.534    -138.757    -680.329
  H     -526.934    -141.202    -680.041
  H     -526.039    -141.684    -682.646
  H     -527.873    -140.096    -683.513
  H     -528.406    -141.403    -682.420
  P     -524.514    -142.329    -679.005
  C     -525.549    -144.676    -679.381
  O     -524.357    -143.929    -679.135
  O     -525.392    -141.900    -677.876
  O     -523.013    -141.803    -678.800
  H     -522.816    -141.744    -677.849
  H     -525.311    -145.717    -679.446
  H     -525.989    -144.353    -680.301
  H     -526.241    -144.518    -678.580

 6  7  8  9  10  11  12  13  14  15  16  27  31  32  33  34  35 0
 6-311+G(2d,p)
 ****
 36  37 0
 6-311+G(2d,p)
 ****
 1  2  3  4  5  17  18  19  20  21  22  23  24  25 0
 3-21G
 ****
 26  28  29  30  38  39  40  41  42  43  44  45 0
 3-21G
 ****


