%nproc=1
%NoSave
%Mem=1900MB
#P OB98/GEN NMR

erre ene a

0 1
  C     -241.844    -204.478     -41.012
  O     -240.535    -203.945     -41.015
  H     -241.781    -205.561     -41.152
  H     -242.442    -204.054     -41.822
  H     -242.328    -204.280     -40.051
  P     -240.371    -202.349     -41.082
  C     -238.398    -202.263     -42.746
  O     -238.815    -202.091     -41.393
  C     -236.872    -202.358     -42.840
  O     -236.266    -201.188     -42.256
  C     -236.285    -203.534     -42.078
  O     -236.580    -204.794     -42.643
  C     -234.832    -203.114     -41.897
  O     -234.002    -203.451     -43.004
  C     -234.958    -201.575     -41.786
  N     -234.704    -201.102     -40.431
  C     -233.413    -200.653     -40.178
  O     -232.514    -200.663     -41.018
  N     -233.169    -200.225     -38.902
  C     -234.058    -200.251     -37.868
  O     -233.765    -199.892     -36.734
  C     -235.401    -200.761     -38.189
  C     -235.660    -201.157     -39.438
  O     -240.885    -201.591     -39.895
  O     -241.084    -201.952     -42.457
  H     -233.197    -202.899     -42.936
  H     -241.285    -200.985     -42.488
  H     -232.241    -199.887     -38.703
  H     -236.131    -200.798     -37.392
  H     -236.643    -201.539     -39.700
  H     -234.234    -201.088     -42.452
  H     -234.390    -203.577     -41.013
  H     -236.727    -203.544     -41.075
  H     -236.594    -202.393     -43.899
  H     -238.739    -201.391     -43.313
  H     -238.863    -203.161     -43.164
  P     -237.222    -205.998     -41.812
  C     -235.185    -207.596     -42.020
  O     -236.557    -207.370     -42.322
  O     -238.700    -205.955     -41.599
  O     -236.522    -205.798     -40.372
  H     -237.170    -206.064     -39.692
  H     -234.883    -208.542     -42.419
  H     -235.049    -207.597     -40.959
  H     -234.591    -206.819     -42.455

 6  7  8  9  10  11  12  13  14  15  16  26  31  32  33  34  35 0
 6-311+G(2d,p)
 ****
 36  37 0
 6-311+G(2d,p)
 ****
 1  2  3  4  5  17  18  19  20  21  22  23  24  25 0
 3-21G
 ****
 27  28  29  30  38  39  40  41  42  43  44  45 0
 3-21G
 ****


