%nproc=1
%NoSave
%Mem=1900MB
#P OB98/GEN NMR

erre ene a

0 1
  C     -109.327    -250.215    -484.402
  O     -109.958    -250.835    -483.288
  P     -109.142    -250.890    -481.904
  C     -110.734    -249.214    -480.696
  O     -109.411    -249.492    -481.153
  C     -110.910    -249.644    -479.239
  O     -110.006    -248.857    -478.404
  C     -112.332    -249.462    -478.690
  O     -112.566    -250.531    -477.769
  C     -112.211    -248.128    -477.957
  O     -113.259    -247.883    -477.027
  C     -110.813    -248.271    -477.360
  N     -111.450    -244.249    -474.258
  C     -112.153    -245.397    -474.404
  N     -111.921    -246.429    -475.243
  C     -110.820    -246.196    -475.989
  C     -110.019    -245.066    -475.964
  C     -110.369    -244.058    -475.047
  N     -109.655    -242.882    -474.903
  N     -108.996    -245.172    -476.886
  C     -109.183    -246.344    -477.458
  N     -110.258    -247.002    -476.937
  O     -107.622    -250.766    -482.374
  O     -109.384    -252.114    -481.074
  H     -114.124    -247.889    -477.483
  H     -107.040    -251.336    -481.833
  H     -113.021    -245.505    -473.758
  H     -108.576    -246.750    -478.261
  H     -110.799    -248.950    -476.496
  H     -112.243    -247.317    -478.693
  H     -113.107    -249.473    -479.460
  H     -110.600    -250.702    -479.151
  H     -111.454    -249.765    -481.313
  H     -110.097    -242.144    -474.369
  H     -108.978    -242.660    -475.632
  H     -110.943    -248.142    -480.821
  P     -114.064    -251.071    -477.575
  C     -113.562    -253.039    -479.161
  O     -114.359    -251.895    -478.929
  O     -114.909    -249.735    -477.817
  O     -114.344    -251.761    -476.281
  H     -114.643    -249.289    -478.645
  H     -113.931    -253.550    -480.056
  H     -113.624    -253.724    -478.306
  H     -112.523    -252.741    -479.331
  H     -109.981    -250.251    -485.248
  H     -108.419    -250.733    -484.631
  H     -109.106    -249.195    -484.165

 3  4  5  6  7  8  9  10  11  12  22  25  29  30  31  32 0
 6-311+G(2d,p)
 ****
 33  36  37 0
 6-311+G(2d,p)
 ****
 1  2  13  14  15  16  17  18  19  20  21  23  24  26 0
 3-21G
 ****
 27  28  34  35  38  39  40  41  42  43  44  45  46  47  48 0
 3-21G
 ****


