%nproc=1
%NoSave
%Mem=1900MB
#P OB98/GEN NMR

erre ene a

0 1
  C     -214.874      84.775      40.451
  O     -216.274      84.559      40.509
  P     -217.041      84.927      41.867
  C     -217.543      83.750      44.126
  O     -217.043      83.623      42.803
  C     -218.232      82.460      44.574
  O     -219.537      82.363      43.944
  C     -217.456      81.191      44.209
  O     -217.660      80.200      45.226
  C     -218.151      80.702      42.955
  O     -217.950      79.303      42.757
  C     -219.595      81.099      43.254
  N     -222.822      78.666      40.221
  C     -222.413      78.348      41.500
  N     -222.860      77.177      42.001
  N     -221.639      79.113      42.224
  C     -221.264      80.251      41.590
  C     -221.618      80.682      40.331
  C     -222.464      79.820      39.536
  O     -222.839      80.029      38.387
  N     -221.069      81.905      40.048
  C     -220.349      82.199      41.113
  N     -220.407      81.208      42.061
  O     -218.565      85.052      41.393
  O     -216.580      86.185      42.521
  H     -218.485      79.046      41.982
  H     -218.825      85.991      41.356
  H     -223.410      78.037      39.698
  H     -219.753      83.092      41.239
  H     -220.079      80.379      43.925
  H     -217.760      81.230      42.078
  H     -223.402      76.512      41.469
  H     -216.381      81.343      44.060
  H     -222.537      76.900      42.919
  H     -218.401      82.512      45.655
  H     -218.263      84.568      44.157
  H     -216.719      83.993      44.807
  P     -216.356      79.767      46.058
  C     -214.420      78.179      45.350
  O     -215.317      79.206      44.980
  O     -216.838      78.458      46.842
  O     -215.839      80.823      46.976
  H     -216.309      78.336      47.651
  H     -214.631      77.290      44.749
  H     -214.503      77.919      46.410
  H     -213.398      78.510      45.149
  H     -214.508      84.484      39.489
  H     -214.392      84.192      41.207
  H     -214.666      85.812      40.613

 3  4  5  6  7  8  9  10  11  12  23  26  30  31 0
 6-311+G(2d,p)
 ****
 33  35  36  37  38 0
 6-311+G(2d,p)
 ****
 1  2  13  14  15  16  17  18  19  20  21  22  24  25 0
 3-21G
 ****
 27  28  29  32  34  39  40  41  42  43  44  45  46  47  48  49 0
 3-21G
 ****


