%nproc=1
%NoSave
%Mem=1900MB
#P OB98/GEN NMR

erre ene a

0 1
  C       19.353      -0.452      45.908
  O       19.432      -1.824      46.246
  H       18.926       0.093      46.753
  H       18.706      -0.316      45.038
  H       20.350      -0.058      45.700
  P       20.060      -2.798      45.137
  C       17.715      -3.687      44.495
  O       18.880      -2.992      44.069
  C       17.099      -4.459      43.332
  O       16.111      -5.389      43.808
  C       16.387      -3.587      42.306
  O       17.315      -3.004      41.406
  C       15.508      -4.619      41.617
  O       16.288      -5.364      40.662
  C       15.093      -5.536      42.782
  N       10.016      -5.543      42.026
  C       11.050      -5.735      41.179
  N       12.373      -5.677      41.440
  C       12.591      -5.384      42.732
  C       11.637      -5.162      43.713
  C       10.293      -5.261      43.320
  N        9.241      -5.074      44.191
  N       12.236      -4.886      44.924
  C       13.528      -4.993      44.690
  N       13.796      -5.257      43.370
  O       20.697      -4.041      45.653
  O       21.048      -1.794      44.374
  H       15.734      -6.100      40.340
  H       20.642      -0.913      44.291
  H       10.779      -5.969      40.154
  H       14.306      -4.906      45.439
  H       15.078      -6.590      42.483
  H       14.683      -4.162      41.067
  H       15.751      -2.839      42.789
  H       17.897      -5.047      42.859
  H       16.982      -2.986      44.907
  H        8.318      -4.994      43.794
  H        9.448      -4.743      45.121
  H       18.018      -4.377      45.288
  P       17.216      -1.450      41.024
  C       15.675      -2.017      39.046
  O       15.828      -1.260      40.241
  O       18.406      -0.897      40.319
  O       16.952      -0.710      42.414
  H       17.435       0.138      42.445
  H       14.718      -1.811      38.613
  H       15.747      -3.060      39.273
  H       16.445      -1.749      38.353

 6  7  8  9  10  11  12  13  14  15  25  28  32  33  34  35 0
 6-311+G(2d,p)
 ****
 36  39  40 0
 6-311+G(2d,p)
 ****
 1  2  3  4  5  16  17  18  19  20  21  22  23  24 0
 3-21G
 ****
 26  27  29  30  31  37  38  41  42  43  44  45  46  47 0
 3-21G
 ****
 48 0
 3-21G
 ****


