%nproc=1
%NoSave
%Mem=1900MB
#P OB98/GEN NMR

erre ene a

0 1
  C      325.438    -899.070      37.481
  O      324.793    -898.160      36.604
  H      325.642    -900.000      36.939
  H      324.793    -899.300      38.340
  H      326.388    -898.650      37.831
  P      324.320    -896.760      37.231
  C      324.661    -895.330      35.087
  O      323.743    -895.890      36.017
  C      323.973    -894.210      34.308
  O      323.301    -893.310      35.234
  C      324.933    -893.320      33.516
  O      325.345    -893.920      32.299
  C      324.080    -892.090      33.296
  O      323.218    -892.240      32.148
  C      323.262    -892.020      34.597
  N      323.765    -890.970      35.486
  C      323.659    -889.660      35.002
  O      323.180    -889.390      33.898
  N      324.166    -888.680      35.803
  C      324.794    -888.870      37.007
  O      325.280    -887.960      37.645
  C      324.886    -890.270      37.465
  C      324.390    -891.230      36.691
  O      325.690    -896.050      37.610
  O      323.402    -896.880      38.407
  H      325.817    -896.060      38.576
  H      322.549    -892.890      32.427
  H      324.097    -887.730      35.466
  H      325.389    -890.460      38.406
  H      324.457    -892.280      37.000
  H      322.203    -891.800      34.379
  H      324.704    -891.210      33.123
  H      325.808    -893.060      34.136
  H      323.219    -894.650      33.641
  H      324.981    -896.120      34.378
  H      325.534    -894.970      35.625
  P      326.856    -893.680      31.810
  C      326.928    -896.020      30.601
  O      327.063    -894.610      30.516
  O      327.665    -894.420      32.983
  O      327.197    -892.240      31.644
  H      327.143    -895.150      33.384
  H      327.103    -896.454      29.639
  H      325.939    -896.265      30.928
  H      327.640    -896.405      31.301

 6  7  8  9  10  11  12  13  14  15  16  27  31  32  33  34  35 0
 6-311+G(2d,p)
 ****
 36  37 0
 6-311+G(2d,p)
 ****
 1  2  3  4  5  17  18  19  20  21  22  23  24  25 0
 3-21G
 ****
 26  28  29  30  38  39  40  41  42  43  44  45 0
 3-21G
 ****


