%nproc=1
%NoSave
%Mem=1900MB
#P OB98/GEN NMR

erre ene a

0 1
  C     -472.170     119.993      72.790
  O     -471.480     119.546      71.624
  P     -470.734     118.127      71.666
  C     -470.528     117.934      69.104
  O     -469.833     117.995      70.345
  C     -469.556     118.067      67.930
  O     -468.900     119.350      67.919
  C     -468.428     117.044      67.965
  O     -468.901     115.757      67.591
  C     -467.426     117.670      67.013
  O     -467.757     117.372      65.645
  C     -467.612     119.179      67.285
  N     -466.547     119.754      68.088
  C     -465.463     120.287      67.382
  O     -465.430     120.217      66.152
  N     -464.436     120.866      68.088
  C     -464.490     120.908      69.382
  N     -463.444     121.500      70.027
  C     -465.602     120.347      70.166
  C     -466.586     119.783      69.463
  O     -471.603     116.949      71.964
  O     -469.634     118.342      72.815
  H     -467.488     116.442      65.500
  H     -469.464     117.482      73.248
  H     -465.600     120.411      71.250
  H     -467.442     119.346      69.961
  H     -467.655     119.735      66.340
  H     -466.412     117.293      67.186
  H     -468.001     117.000      68.976
  H     -470.130     117.957      66.997
  H     -462.687     121.866      69.464
  H     -471.270     118.738      69.063
  H     -463.417     121.623      71.026
  H     -471.085     116.992      69.054
  P     -468.959     114.626      68.727
  C     -470.750     113.609      67.150
  O     -469.754     113.370      68.125
  O     -469.988     115.239      69.795
  O     -467.645     114.312      69.368
  H     -469.728     114.967      70.693
  H     -470.962     112.668      66.630
  H     -470.417     114.349      66.417
  H     -471.665     113.956      67.637
  H     -472.610     120.949      72.599
  H     -471.480     120.074      73.604
  H     -472.937     119.291      73.041

 3  4  5  6  7  8  9  10  11  12  13  23  27  28  29  30  32 0
 6-311+G(2d,p)
 ****
 34  35 0
 6-311+G(2d,p)
 ****
 1  2  14  15  16  17  18  19  20  21  22  24  25  26 0
 3-21G
 ****
 31  33  36  37  38  39  40  41  42  43  44  45  46 0
 3-21G
 ****


