%nproc=1
%NoSave
%Mem=1900MB
#P OB98/GEN NMR

erre ene a

0 1
  C      -72.664     125.975     376.590
  O      -73.742     125.075     376.661
  H      -72.023     125.684     375.753
  H      -72.070     125.936     377.507
  H      -73.020     126.995     376.417
  P      -74.831     125.239     377.833
  C      -73.009     124.541     379.504
  O      -74.320     124.279     379.023
  C      -72.661     123.627     380.676
  O      -73.716     123.695     381.678
  C      -72.492     122.150     380.281
  O      -71.299     121.622     380.872
  C      -73.710     121.474     380.898
  O      -73.510     120.084     381.147
  C      -73.926     122.351     382.139
  N      -75.247     122.157     382.720
  C      -75.312     121.346     383.856
  O      -74.286     120.840     384.316
  N      -76.535     121.076     384.413
  C      -77.610     121.542     383.851
  N      -78.796     121.218     384.435
  C      -77.590     122.383     382.634
  C      -76.388     122.652     382.129
  O      -76.245     125.020     377.407
  O      -74.571     126.704     378.429
  H      -74.301     119.734     381.610
  H      -75.393     127.014     378.883
  H      -78.516     122.743     382.206
  H      -76.273     123.259     381.239
  H      -73.169     122.132     382.909
  H      -74.561     121.580     380.220
  H      -72.455     121.993     379.204
  H      -71.754     124.015     381.161
  H      -78.763     120.635     385.264
  H      -72.950     125.596     379.808
  H      -79.694     121.503     384.080
  H      -72.299     124.364     378.688
  P      -69.968     121.718     379.985
  C      -70.294     119.277     379.165
  O      -69.418     120.228     379.757
  O      -68.905     122.380     380.980
  O      -70.138     122.537     378.743
  H      -68.699     123.287     380.695
  H      -69.792     118.336     379.077
  H      -70.586     119.617     378.194
  H      -71.163     119.162     379.779

 6  7  8  9  10  11  12  13  14  15  16  26  30  31  32  33  35 0
 6-311+G(2d,p)
 ****
 37  38 0
 6-311+G(2d,p)
 ****
 1  2  3  4  5  17  18  19  20  21  22  23  24  25 0
 3-21G
 ****
 27  28  29  34  36  39  40  41  42  43  44  45  46 0
 3-21G
 ****


