%nproc=1
%NoSave
%Mem=1900MB
#P OB98/GEN NMR

erre ene a

0 1
  C      593.222     629.874    -899.280
  O      592.596     629.823    -898.010
  H      594.141     630.457    -899.190
  H      592.565     630.366    -900.000
  H      593.471     628.871    -899.620
  P      591.196     629.063    -897.850
  C      591.727     628.223    -895.480
  O      590.886     629.065    -896.270
  C      591.232     628.136    -894.030
  O      591.638     629.348    -893.320
  C      589.708     628.014    -893.910
  O      589.382     626.982    -892.980
  C      589.276     629.369    -893.350
  O      588.034     629.316    -892.650
  C      590.515     629.726    -892.500
  N      590.534     631.136    -892.150
  C      589.574     631.552    -891.210
  O      588.771     630.736    -890.750
  N      589.514     632.877    -890.880
  C      590.299     633.732    -891.460
  N      590.162     635.038    -891.110
  C      591.311     633.344    -892.460
  C      591.380     632.045    -892.760
  O      591.129     627.724    -898.510
  O      590.102     630.095    -898.420
  H      587.852     630.213    -892.280
  H      589.294     629.593    -898.680
  H      591.939     634.087    -892.930
  H      592.079     631.657    -893.490
  H      590.541     629.134    -891.580
  H      589.177     630.088    -894.180
  H      589.212     627.809    -894.860
  H      591.742     627.306    -893.540
  H      589.448     635.263    -890.420
  H      592.755     628.612    -895.520
  H      590.699     635.792    -891.510
  H      591.716     627.219    -895.920
  P      588.930     625.578    -893.610
  C      590.739     624.603    -892.020
  O      589.501     624.399    -892.670
  O      589.834     625.471    -894.940
  O      587.482     625.490    -893.940
  H      589.274     625.568    -895.740
  H      590.983     623.739    -891.437
  H      590.669     625.457    -891.379
  H      591.503     624.767    -892.751

 6  7  8  9  10  11  12  13  14  15  16  26  30  31  32  33  35 0
 6-311+G(2d,p)
 ****
 37  38 0
 6-311+G(2d,p)
 ****
 1  2  3  4  5  17  18  19  20  21  22  23  24  25 0
 3-21G
 ****
 27  28  29  34  36  39  40  41  42  43  44  45  46 0
 3-21G
 ****


