%nproc=1
%NoSave
%Mem=1900MB
#P OB98/GEN NMR

erre ene a

0 1
  C     -624.849     810.537     186.416
  O     -624.655     810.748     185.012
  P     -623.639     811.893     184.540
  C     -623.683     814.469     184.230
  O     -624.459     813.276     184.351
  C     -624.590     815.676     183.971
  O     -625.451     815.442     182.807
  C     -625.528     815.984     185.160
  O     -625.760     817.395     185.261
  C     -626.830     815.326     184.743
  O     -627.943     815.875     185.446
  C     -626.822     815.599     183.236
  N     -631.574     814.848     181.460
  C     -631.007     815.904     182.107
  N     -629.728     816.039     182.529
  C     -629.002     814.947     182.205
  C     -629.427     813.811     181.543
  C     -630.792     813.778     181.162
  N     -631.385     812.699     180.530
  N     -628.411     812.903     181.391
  C     -627.372     813.469     182.014
  N     -627.684     814.714     182.489
  O     -622.745     811.535     183.395
  O     -622.769     812.173     185.859
  H     -628.750     815.515     185.036
  H     -621.832     812.294     185.613
  H     -631.686     816.727     182.320
  H     -626.408     812.997     182.148
  H     -627.116     816.631     183.005
  H     -626.784     814.254     184.945
  H     -625.166     815.612     186.126
  H     -623.970     816.546     183.737
  H     -622.966     814.361     183.406
  H     -632.371     812.721     180.399
  H     -630.848     811.830     180.438
  H     -623.083     814.595     185.138
  P     -625.346     818.078     186.665
  C     -626.321     817.957     189.092
  O     -626.421     817.565     187.747
  O     -625.138     819.559     186.579
  O     -624.008     817.265     187.043
  H     -624.091     816.296     186.985
  H     -627.212     817.612     189.619
  H     -626.258     819.048     189.184
  H     -625.444     817.488     189.550
  H     -625.552     809.744     186.564
  H     -625.224     811.434     186.863
  H     -623.916     810.276     186.870

 3  4  5  6  7  8  9  10  11  12  22  25  29  30  31  32 0
 6-311+G(2d,p)
 ****
 33  36  37 0
 6-311+G(2d,p)
 ****
 1  2  13  14  15  16  17  18  19  20  21  23  24  26 0
 3-21G
 ****
 27  28  34  35  38  39  40  41  42  43  44  45  46  47  48 0
 3-21G
 ****


