%nproc=1
%NoSave
%Mem=1900MB
#P OB98/GEN NMR

erre ene a

0 1
  C      -47.753     -53.687    -194.525
  O      -47.013     -52.731    -193.785
  P      -45.412     -52.659    -193.894
  C      -45.367     -50.472    -192.519
  O      -44.947     -51.826    -192.606
  C      -45.279     -49.993    -191.072
  O      -43.919     -50.106    -190.608
  C      -45.668     -48.536    -190.864
  O      -47.078     -48.373    -190.901
  C      -45.010     -48.250    -189.520
  O      -45.815     -48.767    -188.449
  C      -43.702     -49.062    -189.629
  N      -42.552     -48.239    -189.984
  C      -42.165     -47.273    -189.051
  O      -42.766     -47.142    -187.986
  N      -41.071     -46.491    -189.330
  C      -40.435     -46.640    -190.450
  N      -39.320     -45.885    -190.642
  C      -40.843     -47.607    -191.484
  C      -41.894     -48.369    -191.187
  O      -44.895     -52.139    -195.192
  O      -44.919     -54.136    -193.547
  H      -45.348     -48.552    -187.618
  H      -44.869     -54.731    -194.336
  H      -40.290     -47.687    -192.409
  H      -42.245     -49.117    -191.885
  H      -43.493     -49.572    -188.682
  H      -44.846     -47.184    -189.332
  H      -45.215     -47.905    -191.637
  H      -45.907     -50.649    -190.455
  H      -38.979     -45.368    -189.840
  H      -46.408     -50.407    -192.855
  H      -38.624     -46.138    -191.332
  H      -44.745     -49.857    -193.177
  P      -47.647     -46.903    -191.193
  C      -49.810     -48.003    -192.107
  O      -49.246     -47.050    -191.225
  O      -47.238     -46.647    -192.718
  O      -47.120     -45.846    -190.282
  H      -46.449     -46.076    -192.767
  H      -50.860     -48.144    -191.839
  H      -49.293     -48.963    -192.023
  H      -49.755     -47.637    -193.135
  H      -48.796     -53.571    -194.315
  H      -47.440     -54.672    -194.248
  H      -47.581     -53.539    -195.571

 3  4  5  6  7  8  9  10  11  12  13  23  27  28  29  30  32 0
 6-311+G(2d,p)
 ****
 34  35 0
 6-311+G(2d,p)
 ****
 1  2  14  15  16  17  18  19  20  21  22  24  25  26 0
 3-21G
 ****
 31  33  36  37  38  39  40  41  42  43  44  45  46 0
 3-21G
 ****


