%nproc=1
%NoSave
%Mem=1900MB
#P OB98/GEN NMR

erre ene a

0 1
  C      -63.680    -474.762      92.526
  O      -64.444    -475.764      91.891
  H      -62.971    -475.214      93.222
  H      -63.123    -474.207      91.765
  H      -64.336    -474.066      93.059
  P      -65.316    -476.720      92.841
  C      -67.392    -476.575      91.295
  O      -66.429    -477.420      91.915
  C      -68.347    -477.413      90.451
  O      -67.605    -477.968      89.331
  C      -69.020    -478.576      91.196
  O      -70.444    -478.451      91.132
  C      -68.610    -479.818      90.420
  O      -69.667    -480.767      90.272
  C      -68.168    -479.258      89.072
  N      -67.606    -483.536      86.349
  C      -68.665    -482.714      86.516
  N      -68.721    -481.534      87.165
  C      -67.513    -481.203      87.657
  C      -66.338    -481.930      87.553
  C      -66.415    -483.157      86.876
  N      -65.346    -484.018      86.757
  N      -65.303    -481.271      88.197
  C      -65.854    -480.200      88.719
  N      -67.193    -480.125      88.437
  O      -66.158    -475.685      93.730
  O      -64.522    -477.657      93.690
  H      -69.277    -481.558      89.851
  H      -66.101    -475.939      94.667
  H      -69.595    -483.053      86.070
  H      -65.351    -479.474      89.345
  H      -69.012    -479.129      88.382
  H      -67.775    -480.304      90.942
  H      -68.699    -478.641      92.243
  H      -69.110    -476.746      90.028
  H      -66.885    -475.851      90.649
  H      -65.520    -484.928      86.360
  H      -64.485    -483.795      87.237
  H      -67.938    -476.031      92.070
  P      -71.235    -478.442      92.539
  C      -72.812    -476.432      92.035
  O      -72.689    -477.828      92.260
  O      -70.495    -477.279      93.351
  O      -71.198    -479.743      93.262
  H      -70.572    -477.440      94.313
  H      -73.840    -476.187      91.866
  H      -72.234    -476.157      91.178
  H      -72.455    -475.900      92.892

 6  7  8  9  10  11  12  13  14  15  25  28  32  33  34  35 0
 6-311+G(2d,p)
 ****
 36  39  40 0
 6-311+G(2d,p)
 ****
 1  2  3  4  5  16  17  18  19  20  21  22  23  24 0
 3-21G
 ****
 26  27  29  30  31  37  38  41  42  43  44  45  46  47  48 0
 3-21G
 ****


