%nproc=1
%NoSave
%Mem=1900MB
#P OB98/GEN NMR

erre ene a

0 1
  C      -33.753      38.272     -14.674
  O      -34.292      37.222     -15.483
  P      -33.321      36.559     -16.574
  C      -34.616      37.753     -18.492
  O      -33.356      37.458     -17.899
  C      -34.416      38.527     -19.797
  O      -33.580      37.796     -20.713
  C      -35.712      38.774     -20.550
  O      -36.434      39.839     -19.963
  C      -35.209      39.072     -21.957
  O      -34.957      40.474     -22.146
  C      -33.894      38.263     -22.037
  N      -33.969      37.162     -22.982
  C      -32.834      36.957     -23.772
  O      -31.857      37.700     -23.661
  N      -32.846      35.932     -24.684
  C      -33.907      35.196     -24.813
  N      -33.861      34.200     -25.736
  C      -35.134      35.398     -24.017
  C      -35.098      36.390     -23.131
  O      -34.106      35.233     -17.006
  O      -31.955      36.246     -16.057
  H      -34.476      40.543     -22.996
  H      -33.477      34.525     -17.230
  H      -35.996      34.764     -24.166
  H      -35.955      36.612     -22.503
  H      -33.065      38.913     -22.342
  H      -35.943      38.780     -22.714
  H      -36.319      37.860     -20.560
  H      -33.930      39.484     -19.562
  H      -33.004      34.091     -26.266
  H      -35.228      38.337     -17.802
  H      -34.630      33.573     -25.924
  H      -35.151      36.814     -18.669
  P      -37.732      39.474     -19.102
  C      -39.243      39.428     -21.177
  O      -38.693      38.680     -20.111
  O      -38.472      40.893     -18.994
  O      -37.515      38.855     -17.763
  H      -39.242      40.825     -18.403
  H      -39.695      38.739     -21.893
  H      -38.465      40.003     -21.686
  H      -40.018      40.100     -20.798
  H      -34.503      38.620     -13.995
  H      -33.438      39.079     -15.301
  H      -32.915      37.902     -14.121

 3  4  5  6  7  8  9  10  11  12  13  21  23  27  28  29  30  32 0
 6-311+G(2d,p)
 ****
 34  35 0
 6-311+G(2d,p)
 ****
 1  2  14  15  16  17  18  19  20  22  24  25  26 0
 3-21G
 ****
 31  33  36  37  38  39  40  41  42  43  44  45  46 0
 3-21G
 ****


