%nproc=1
%NoSave
%Mem=1900MB
#P OB98/GEN NMR

erre ene a

0 1
  C     -137.141    -287.407    -423.062
  O     -138.443    -287.860    -422.738
  H     -136.475    -288.259    -423.221
  H     -137.192    -286.824    -423.987
  H     -136.757    -286.766    -422.263
  P     -138.594    -288.732    -421.400
  C     -138.890    -286.626    -419.904
  O     -139.458    -287.833    -420.390
  C     -139.973    -285.566    -419.753
  O     -140.503    -285.214    -421.049
  C     -141.172    -286.010    -418.924
  O     -140.930    -285.904    -417.532
  C     -142.213    -285.002    -419.380
  O     -141.978    -283.733    -418.738
  C     -141.918    -284.901    -420.880
  N     -145.683    -285.268    -424.333
  C     -145.143    -284.210    -423.692
  N     -144.143    -284.190    -422.784
  C     -143.697    -285.438    -422.553
  C     -144.153    -286.616    -423.121
  C     -145.193    -286.499    -424.060
  N     -145.757    -287.579    -424.702
  N     -143.476    -287.701    -422.607
  C     -142.601    -287.185    -421.766
  N     -142.702    -285.820    -421.692
  O     -137.126    -288.690    -420.756
  O     -139.100    -290.125    -421.588
  H     -141.079    -283.451    -419.003
  H     -137.017    -289.435    -420.133
  H     -145.568    -283.239    -423.946
  H     -141.876    -287.751    -421.192
  H     -142.084    -283.895    -421.277
  H     -143.238    -285.303    -419.136
  H     -141.504    -287.022    -419.199
  H     -139.513    -284.665    -419.325
  H     -138.133    -286.278    -420.616
  H     -146.609    -287.408    -425.207
  H     -145.506    -288.508    -424.393
  H     -138.405    -286.817    -418.936
  P     -141.267    -287.179    -416.621
  C     -138.674    -287.289    -416.455
  O     -139.926    -287.514    -415.816
  O     -141.362    -288.373    -417.686
  O     -142.506    -287.056    -415.801
  H     -141.943    -289.086    -417.365
  H     -137.881    -287.560    -415.790
  H     -138.586    -286.254    -416.712
  H     -138.615    -287.884    -417.343

 6  7  8  9  10  11  12  13  14  15  25  28  32  33  34  35 0
 6-311+G(2d,p)
 ****
 36  39  40 0
 6-311+G(2d,p)
 ****
 1  2  3  4  5  16  17  18  19  20  21  22  23  24 0
 3-21G
 ****
 26  27  29  30  31  37  38  41  42  43  44  45  46  47 0
 3-21G
 ****
 48 0
 3-21G
 ****


