%nproc=1
%NoSave
%Mem=1900MB
#P OB98/GEN NMR

erre ene a

0 1
  C      267.763    -794.376     357.360
  O      268.872    -794.212     356.503
  H      267.306    -795.355     357.157
  H      267.014    -793.599     357.201
  H      268.092    -794.366     358.410
  P      269.557    -792.760     356.430
  C      268.775    -790.418     355.662
  O      268.506    -791.823     355.659
  C      267.582    -789.630     355.105
  O      266.393    -789.923     355.856
  C      267.751    -788.120     355.185
  O      268.740    -787.599     354.323
  C      266.321    -787.619     355.078
  O      265.871    -787.463     353.736
  C      265.529    -788.769     355.761
  N      265.003    -788.372     357.067
  C      263.681    -787.933     357.072
  O      262.988    -787.836     356.062
  N      263.195    -787.536     358.291
  C      263.897    -787.493     359.467
  O      263.415    -787.095     360.512
  C      265.301    -787.951     359.380
  C      265.774    -788.363     358.212
  O      270.936    -792.720     355.848
  O      269.483    -792.227     357.939
  H      266.526    -786.915     353.272
  H      270.097    -791.470     358.081
  H      262.239    -787.217     358.324
  H      265.888    -787.930     360.297
  H      266.813    -788.701     358.121
  H      264.679    -789.066     355.137
  H      266.194    -786.652     355.578
  H      268.089    -787.878     356.209
  H      267.410    -789.949     354.070
  H      269.648    -790.249     355.026
  H      269.002    -790.092     356.680
  P      269.508    -786.226     354.601
  C      268.742    -783.803     355.114
  O      268.458    -785.014     354.445
  O      270.859    -786.082     353.978
  O      269.718    -786.291     356.202
  H      270.572    -785.864     356.407
  H      267.962    -783.097     354.919
  H      269.674    -783.412     354.763
  H      268.805    -783.983     356.167

 6  7  8  9  10  11  12  13  14  15  16  26  31  32  33  34  35 0
 6-311+G(2d,p)
 ****
 36  37 0
 6-311+G(2d,p)
 ****
 1  2  3  4  5  17  18  19  20  21  22  23  24  25 0
 3-21G
 ****
 27  28  29  30  38  39  40  41  42  43  44  45 0
 3-21G
 ****


