%nproc=1
%NoSave
%Mem=1900MB
#P OB98/GEN NMR

erre ene a

0 1
  C       69.730      16.990      89.202
  O       68.937      16.201      90.079
  P       67.765      15.316      89.428
  C       66.273      17.429      89.525
  O       66.746      16.346      88.732
  C       65.289      18.287      88.736
  O       65.948      18.777      87.535
  C       64.015      17.548      88.294
  O       62.876      18.394      88.511
  C       64.195      17.393      86.792
  O       62.949      17.276      86.115
  C       64.974      18.670      86.475
  N       64.445      19.990      81.626
  C       63.697      20.359      82.727
  N       62.621      21.143      82.490
  N       63.972      19.988      83.951
  C       65.093      19.231      84.042
  C       65.922      18.808      83.027
  C       65.569      19.178      81.671
  O       66.141      18.810      80.645
  N       66.971      18.069      83.514
  C       66.778      18.040      84.818
  N       65.622      18.688      85.183
  O       66.961      14.794      90.711
  O       68.220      14.181      88.576
  H       62.429      18.071      86.334
  H       66.917      13.819      90.698
  H       64.177      20.290      80.702
  H       67.421      17.535      85.530
  H       64.315      19.548      86.530
  H       64.792      16.496      86.591
  H       62.372      21.494      81.577
  H       63.860      16.586      88.791
  H       62.073      21.444      83.288
  H       65.035      19.170      89.340
  H       67.122      18.047      89.834
  H       65.786      17.026      90.421
  P       61.622      17.710      89.248
  C       60.339      17.260      87.022
  O       60.969      16.721      88.168
  O       60.560      18.908      89.359
  O       61.951      17.112      90.575
  H       59.942      18.748      90.097
  H       60.515      18.338      86.922
  H       59.263      17.083      87.090
  H       60.726      16.757      86.132
  H       70.465      17.523      89.768
  H       69.104      17.687      88.685
  H       70.217      16.354      88.493

 3  4  5  6  7  8  9  10  11  12  23  26  30  31  33  0
 6-311+G(2d,p)
 ****
 35  36  37  38 0
 6-311+G(2d,p)
 ****
 1  2  13  14  15  16  17  18  19  20  21  22  24  25  27  28  29 0
 3-21G
 ****
 32  34  39  40  41  42  43  44  45  46  47  48  49 0
 3-21G
 ****


