%nproc=1
%NoSave
%Mem=1900MB
#P OB98/GEN NMR

erre ene a

0 1
  C      265.249      57.640     248.451
  O      265.633      58.742     247.653
  H      265.229      57.957     249.498
  H      265.968      56.822     248.348
  H      264.249      57.295     248.172
  P      265.780      58.526     246.072
  C      268.308      58.080     246.359
  O      267.065      57.589     245.867
  C      269.432      57.751     245.379
  O      270.670      58.346     245.816
  C      269.707      56.258     245.216
  O      268.779      55.673     244.316
  C      271.118      56.293     244.657
  O      271.078      56.654     243.262
  C      271.752      57.434     245.475
  N      276.144      56.049     247.607
  C      275.837      56.277     246.282
  N      276.834      56.078     245.390
  N      274.659      56.652     245.859
  C      273.740      56.746     246.851
  C      273.921      56.528     248.199
  C      275.249      56.177     248.658
  O      275.570      55.990     249.830
  N      272.736      56.624     248.886
  C      271.853      56.954     247.963
  N      272.411      57.030     246.708
  O      265.796      59.769     245.236
  O      264.562      57.560     245.692
  H      270.635      57.522     243.204
  H      263.775      58.073     245.426
  H      277.069      55.754     247.871
  H      270.805      57.150     248.144
  H      272.487      57.998     244.893
  H      271.629      55.329     244.728
  H      277.716      55.647     245.634
  H      269.719      55.745     246.184
  H      276.612      56.182     244.407
  H      269.176      58.211     244.412
  H      268.493      57.600     247.327
  H      268.257      59.164     246.512
  P      267.814      54.469     244.764
  C      269.296      52.800     243.456
  O      268.726      53.151     244.705
  O      266.535      54.378     244.009
  O      267.635      54.675     246.337
  H      266.907      55.313     246.562
  H      269.874      51.907     243.566
  H      269.928      53.594     243.116
  H      268.516      52.634     242.742

 6  7  8  9  10  11  12  13  14  15  26  29  33  34 0
 6-311+G(2d,p)
 ****
 36  38  39  40  41 0
 6-311+G(2d,p)
 ****
 1  2  3  4  5  16  17  18  19  20  21  22  23  24  25 0
 3-21G
 ****
 27  28  30  31  32  35  37  42  43  44  45  46  47 0
 3-21G
 ****
 48  49 0
 3-21G
 ****


