%nproc=1
%NoSave
%Mem=1900MB
#P OB98/GEN NMR

erre ene a

0 1
  C     -501.743    1020.155    -457.316
  O     -502.071    1018.787    -457.185
  H     -502.673    1020.726    -457.405
  H     -501.144    1020.327    -458.209
  H     -501.202    1020.509    -456.432
  P     -500.864    1017.734    -457.041
  C     -501.227    1017.299    -454.522
  O     -501.276    1016.760    -455.832
  C     -502.290    1016.648    -453.647
  O     -503.608    1017.114    -454.012
  C     -502.335    1015.119    -453.747
  O     -501.327    1014.552    -452.929
  C     -503.749    1014.856    -453.242
  O     -503.777    1014.967    -451.805
  C     -504.532    1015.996    -453.885
  N     -506.881    1012.522    -456.742
  C     -506.425    1012.443    -455.444
  N     -506.577    1011.243    -454.816
  N     -505.857    1013.437    -454.809
  C     -505.698    1014.536    -455.568
  C     -506.087    1014.733    -456.874
  C     -506.773    1013.641    -457.558
  O     -507.202    1013.675    -458.691
  N     -505.698    1015.972    -457.339
  C     -505.118    1016.537    -456.299
  N     -505.078    1015.696    -455.209
  O     -499.492    1018.311    -456.911
  O     -501.010    1016.799    -458.335
  H     -503.515    1015.882    -451.585
  H     -500.461    1017.129    -459.069
  H     -507.297    1011.717    -457.181
  H     -504.709    1017.536    -456.288
  H     -505.370    1016.337    -453.257
  H     -504.099    1013.849    -453.489
  H     -506.753    1010.398    -455.336
  H     -502.263    1014.779    -454.786
  H     -506.223    1011.155    -453.879
  H     -502.122    1016.975    -452.604
  H     -501.407    1018.383    -454.597
  H     -500.243    1017.142    -454.076
  P     -500.544    1013.223    -453.391
  C     -498.666    1014.512    -454.626
  O     -499.007    1013.668    -453.521
  O     -501.104    1012.560    -454.612
  O     -500.532    1012.291    -452.099
  H     -501.329    1011.708    -452.018
  H     -497.620    1014.733    -454.596
  H     -499.225    1015.422    -454.565
  H     -498.899    1014.011    -455.542

 6  7  8  9  10  11  12  13  14  15  26  29  33  34 0
 6-311+G(2d,p)
 ****
 36  38  39  40  41 0
 6-311+G(2d,p)
 ****
 1  2  3  4  5  16  17  18  19  20  21  22  23  24  25 0
 3-21G
 ****
 27  28  30  31  32  35  37  42  43  44  45  46  47 0
 3-21G
 ****
 48  49 0
 3-21G
 ****


