%nproc=1
%NoSave
%Mem=1900MB
#P OB98/GEN NMR

erre ene a

0 1
  C        6.897     -27.399      19.406
  O        6.638     -26.019      19.218
  P        5.245     -25.377      19.668
  C        5.392     -25.458      22.288
  O        4.851     -25.976      21.093
  C        4.262     -24.829      23.113
  O        3.731     -23.674      22.431
  C        3.116     -25.813      23.337
  O        3.264     -26.479      24.580
  C        1.894     -24.917      23.272
  O        1.687     -24.256      24.534
  C        2.315     -23.892      22.192
  N        2.143     -24.265      20.775
  C        2.541     -23.380      19.778
  O        3.065     -22.294      19.999
  N        2.287     -23.783      18.490
  C        1.731     -24.974      18.122
  O        1.293     -25.218      17.005
  C        1.590     -25.963      19.194
  C        1.776     -25.564      20.452
  O        4.194     -26.061      18.675
  O        5.178     -23.886      19.614
  H        0.903     -23.687      24.434
  H        3.982     -25.465      17.934
  H        2.444     -23.087      17.769
  H        1.286     -26.967      18.930
  H        1.638     -26.270      21.267
  H        1.802     -22.936      22.339
  H        0.992     -25.495      23.081
  H        3.067     -26.532      22.510
  H        4.670     -24.494      24.075
  H        6.160     -24.711      22.060
  H        5.877     -26.256      22.858
  P        2.493     -27.857      24.835
  C        4.220     -29.134      23.438
  O        2.858     -28.784      23.578
  O        1.037     -27.733      25.139
  O        3.302     -28.510      26.054
  H        2.836     -28.327      26.896
  H        4.307     -29.901      22.665
  H        4.614     -29.530      24.378
  H        4.797     -28.258      23.133
  H        7.876     -27.631      19.042
  H        6.172     -27.974      18.869
  H        6.839     -27.634      20.448

 3  4  5  6  7  8  9  10  11  12  13  23  28  29  30  31  32 0
 6-311+G(2d,p)
 ****
 33  34 0
 6-311+G(2d,p)
 ****
 1  2  14  15  16  17  18  19  20  21  22  24  25  26  27 0
 3-21G
 ****
 35  36  37  38  39  40  41  42  43  44  45 0
 3-21G
 ****


