%nproc=1
%NoSave
%Mem=1900MB
#P OB98/GEN NMR

erre ene a

0 1
  C     -897.540    -938.783    -598.826
  O     -898.480    -937.734    -598.909
  H     -897.760    -939.518    -599.602
  H     -897.610    -939.272    -597.847
  H     -896.520    -938.409    -598.977
  P     -898.270    -936.424    -598.012
  C     -896.560    -935.052    -599.370
  O     -896.760    -935.932    -598.272
  C     -895.220    -934.323    -599.221
  O     -895.240    -933.532    -598.006
  C     -894.010    -935.239    -599.105
  O     -893.660    -935.773    -600.362
  C     -893.000    -934.290    -598.498
  O     -892.420    -933.450    -599.510
  C     -893.870    -933.463    -597.526
  N     -893.790    -933.938    -596.139
  C     -892.650    -933.557    -595.432
  O     -891.730    -932.905    -595.932
  N     -892.590    -933.968    -594.117
  C     -893.500    -934.774    -593.507
  O     -893.370    -935.164    -592.342
  C     -894.660    -935.164    -594.315
  C     -894.760    -934.731    -595.560
  O     -898.650    -936.552    -596.577
  O     -899.140    -935.312    -598.760
  H     -893.140    -933.274    -600.156
  H     -900.000    -935.197    -598.294
  H     -891.760    -933.712    -593.608
  H     -895.400    -935.817    -593.841
  H     -895.600    -935.019    -596.178
  H     -893.580    -932.418    -597.551
  H     -892.160    -934.818    -598.018
  H     -894.220    -936.041    -598.377
  H     -895.110    -933.627    -600.070
  H     -897.370    -934.323    -599.405
  H     -896.570    -935.641    -600.296
  P     -892.980    -937.214    -600.478
  C     -894.730    -938.112    -602.124
  O     -894.130    -938.274    -600.852
  O     -892.120    -937.603    -599.325
  O     -892.120    -937.130    -601.832
  H     -891.170    -937.053    -601.615
  H     -895.476    -938.866    -602.265
  H     -893.983    -938.202    -602.885
  H     -895.185    -937.145    -602.183

 6  7  8  9  10  11  12  13  14  15  16  26  31  32  33  34  35 0
 6-311+G(2d,p)
 ****
 36  37 0
 6-311+G(2d,p)
 ****
 1  2  3  4  5  17  18  19  20  21  22  23  24  25 0
 3-21G
 ****
 27  28  29  30  38  39  40  41  42  43  44  45 0
 3-21G
 ****


