%nproc=1
%NoSave
%Mem=1900MB
#P OB98/GEN NMR

erre ene a

0 1
  C      370.435     287.965     376.966
  O      370.294     286.615     377.421
  P      371.607     285.768     377.766
  C      370.669     283.442     377.165
  O      371.148     284.287     378.203
  C      370.298     282.068     377.714
  O      371.456     281.360     378.199
  C      369.349     282.128     378.900
  O      368.030     282.446     378.469
  C      369.513     280.750     379.504
  O      368.705     279.770     378.802
  C      371.004     280.466     379.247
  N      371.825     280.606     380.447
  C      372.226     279.404     381.056
  O      371.852     278.319     380.593
  N      373.028     279.462     382.172
  C      373.389     280.618     382.639
  N      374.179     280.619     383.747
  C      372.985     281.896     382.027
  C      372.205     281.818     380.946
  O      372.583     286.434     378.691
  O      372.266     285.513     376.322
  H      368.948     278.897     379.184
  H      373.232     285.444     376.427
  H      373.321     282.844     382.457
  H      371.861     282.719     380.446
  H      371.146     279.438     378.860
  H      369.210     280.708     380.547
  H      369.695     282.887     379.618
  H      369.849     281.483     376.905
  H      374.441     279.721     384.145
  H      371.433     283.337     376.395
  H      374.558     281.464     384.156
  H      369.806     283.931     376.693
  P      367.523     283.958     378.670
  C      365.042     283.311     378.998
  O      365.979     284.025     378.224
  O      368.282     284.745     377.480
  O      367.846     284.563     380.010
  H      368.501     285.641     377.778
  H      364.045     283.701     378.783
  H      365.223     283.410     380.064
  H      365.071     282.255     378.721
  H      369.467     288.382     376.782
  H      371.007     287.979     376.062
  H      370.937     288.543     377.714

 3  4  5  6  7  8  9  10  11  12  13  23  27  28  29  30  32 0
 6-311+G(2d,p)
 ****
 34  35 0
 6-311+G(2d,p)
 ****
 1  2  14  15  16  17  18  19  20  21  22  24  25  26 0
 3-21G
 ****
 31  33  36  37  38  39  40  41  42  43  44  45  46 0
 3-21G
 ****


