%nproc=1
%NoSave
%Mem=1900MB
#P OB98/GEN NMR

erre ene a

0 1
  C      109.720    -105.940    -853.571
  O      110.969    -106.379    -854.063
  H      109.599    -106.293    -852.545
  H      108.907    -106.351    -854.180
  H      109.675    -104.845    -853.580
  P      111.287    -106.060    -855.606
  C      113.496    -105.395    -856.830
  O      112.844    -105.656    -855.593
  C      114.619    -104.386    -856.623
  O      114.081    -103.068    -856.382
  C      115.521    -104.672    -855.425
  O      116.466    -105.707    -855.670
  C      116.190    -103.319    -855.271
  O      117.177    -103.142    -856.302
  C      114.984    -102.373    -855.475
  N      114.303    -102.033    -854.226
  C      114.531    -100.749    -853.715
  O      115.279     -99.963    -854.299
  N      113.936    -100.397    -852.521
  C      113.163    -101.243    -851.915
  N      112.607    -100.836    -850.738
  C      112.882    -102.599    -852.422
  C      113.475    -102.928    -853.570
  O      110.561    -104.649    -855.850
  O      110.917    -107.121    -856.586
  H      117.833    -103.852    -856.185
  H      110.819    -104.291    -856.733
  H      112.244    -103.264    -851.865
  H      113.311    -103.903    -854.005
  H      115.293    -101.446    -855.971
  H      116.703    -103.197    -854.313
  H      114.940    -104.891    -854.524
  H      115.197    -104.337    -857.558
  H      112.866     -99.926    -850.382
  H      112.753    -104.997    -857.535
  H      112.115    -101.466    -850.115
  H      113.913    -106.323    -857.241
  P      117.181    -106.368    -854.392
  C      118.399    -108.641    -854.038
  O      117.387    -107.921    -854.723
  O      116.020    -106.376    -853.291
  O      118.404    -105.648    -853.911
  H      116.381    -106.239    -852.395
  H      118.403    -109.657    -854.374
  H      118.206    -108.614    -852.986
  H      119.351    -108.195    -854.238

 6  7  8  9  10  11  12  13  14  15  16  26  30  31  32  33  35 0
 6-311+G(2d,p)
 ****
 37  38 0
 6-311+G(2d,p)
 ****
 1  2  3  4  5  17  18  19  20  21  22  23  24  25 0
 3-21G
 ****
 27  28  29  34  36  39  40  41  42  43  44  45  46 0
 3-21G
 ****


