%nproc=1
%NoSave
%Mem=1900MB
#P OB98/GEN NMR

erre ene a

0 1
  C     -268.195     -27.210    -259.847
  O     -269.245     -26.901    -260.743
  H     -267.450     -27.813    -260.376
  H     -268.572     -27.785    -258.998
  H     -267.715     -26.293    -259.492
  P     -270.469     -26.022    -260.202
  C     -271.142     -24.754    -262.350
  O     -271.452     -25.815    -261.453
  C     -271.841     -24.980    -263.684
  O     -271.102     -25.918    -264.492
  C     -273.258     -25.543    -263.556
  O     -274.179     -24.507    -263.259
  C     -273.447     -26.133    -264.948
  O     -273.723     -25.077    -265.886
  C     -272.059     -26.738    -265.220
  N     -272.846     -31.601    -266.423
  C     -273.200     -30.450    -267.100
  N     -273.904     -30.619    -268.244
  N     -272.912     -29.243    -266.687
  C     -272.268     -29.229    -265.498
  C     -271.879     -30.295    -264.724
  C     -272.152     -31.628    -265.221
  O     -271.841     -32.673    -264.659
  N     -271.306     -29.885    -263.544
  C     -271.317     -28.570    -263.625
  N     -271.905     -28.119    -264.786
  O     -270.111     -24.745    -259.499
  O     -271.281     -27.024    -259.256
  H     -274.619     -24.752    -265.683
  H     -270.985     -26.951    -258.328
  H     -273.113     -32.501    -266.786
  H     -270.911     -27.899    -262.878
  H     -271.786     -26.696    -266.278
  H     -274.269     -26.842    -265.005
  H     -274.388     -31.486    -268.447
  H     -273.304     -26.363    -262.827
  H     -274.214     -29.789    -268.728
  H     -271.848     -24.024    -264.229
  H     -270.057     -24.744    -262.486
  H     -271.453     -23.797    -261.928
  P     -275.479     -24.785    -262.356
  C     -275.442     -22.695    -260.837
  O     -276.030     -23.334    -261.966
  O     -275.253     -25.702    -261.201
  O     -276.579     -25.309    -263.391
  H     -276.560     -26.289    -263.528
  H     -275.900     -21.739    -260.690
  H     -274.393     -22.566    -261.006
  H     -275.591     -23.300    -259.967

 6  7  8  9  10  11  12  13  14  15  26  29  33  34 0
 6-311+G(2d,p)
 ****
 36  38  39  40  41 0
 6-311+G(2d,p)
 ****
 1  2  3  4  5  16  17  18  19  20  21  22  23  24  25 0
 3-21G
 ****
 27  28  30  31  32  35  37  42  43  44  45  46  47 0
 3-21G
 ****
 48  49 0
 3-21G
 ****


