%nproc=1
%NoSave
%Mem=1900MB
#P OB98/GEN NMR

erre ene a

0 1
  C       66.630     135.679     -54.478
  O       65.313     136.159     -54.259
  P       64.767     137.440     -55.056
  C       63.517     135.907     -56.697
  O       64.472     136.951     -56.557
  C       62.115     136.481     -56.895
  O       62.144     137.413     -58.003
  C       61.065     135.424     -57.214
  O       59.828     135.798     -56.597
  C       60.889     135.510     -58.722
  O       59.586     135.054     -59.121
  C       61.162     136.996     -58.972
  N       60.049     137.296     -63.976
  C       59.273     137.051     -62.898
  N       59.640     136.961     -61.599
  C       60.953     137.211     -61.462
  C       61.868     137.481     -62.467
  C       61.372     137.517     -63.782
  N       62.161     137.780     -64.880
  N       63.135     137.653     -61.943
  C       62.980     137.511     -60.646
  N       61.677     137.253     -60.303
  O       65.624     138.655     -54.957
  O       63.306     137.691     -54.461
  H       59.559     134.088     -58.961
  H       63.132     138.647     -54.383
  H       58.217     136.903     -63.103
  H       63.771     137.572     -59.913
  H       60.259     137.603     -58.826
  H       61.635     134.874     -59.214
  H       61.357     134.420     -56.887
  H       61.837     137.047     -55.997
  H       63.532     135.302     -55.786
  H       61.698     137.906     -65.766
  H       63.102     138.115     -64.720
  H       63.795     135.269     -57.543
  P       58.906     134.582     -56.078
  C       60.090     134.928     -53.787
  O       59.659     134.025     -54.778
  O       58.605     133.603     -57.168
  O       57.631     135.376     -55.520
  H       57.865     136.295     -55.263
  H       60.610     134.367     -53.005
  H       59.230     135.431     -53.334
  H       60.774     135.667     -54.210
  H       66.806     134.824     -53.859
  H       67.334     136.447     -54.235
  H       66.743     135.404     -55.506

 3  4  5  6  7  8  9  10  11  12  22  25  29  30  31  32 0
 6-311+G(2d,p)
 ****
 33  36  37 0
 6-311+G(2d,p)
 ****
 1  2  13  14  15  16  17  18  19  20  21  23  24  26 0
 3-21G
 ****
 27  28  34  35  38  39  40  41  42  43  44  45  46  47  48 0
 3-21G
 ****


