%nproc=1
%NoSave
%Mem=1900MB
#P OB98/GEN NMR

erre ene a

0 1
  C      110.857      -6.174      -3.165
  O      110.350      -5.131      -3.977
  H      110.030      -6.606      -2.596
  H      111.601      -5.780      -2.465
  H      111.301      -6.953      -3.790
  P      111.417      -4.336      -4.874
  C      111.820      -1.994      -3.844
  O      112.171      -3.372      -3.835
  C      110.557      -1.759      -3.017
  O      110.531      -2.645      -1.884
  C      110.426      -0.347      -2.457
  O      109.878       0.524      -3.433
  C      109.453      -0.578      -1.310
  O      108.106      -0.631      -1.822
  C      109.867      -1.966      -0.786
  N      110.309      -3.020       4.220
  C      109.232      -2.977       3.404
  N      109.180      -2.636       2.099
  C      110.405      -2.326       1.637
  C      111.592      -2.322       2.353
  C      111.517      -2.696       3.705
  N      112.617      -2.738       4.535
  N      112.649      -1.944       1.549
  C      112.114      -1.781       0.356
  N      110.754      -1.964       0.364
  O      110.875      -3.687      -6.102
  O      112.509      -5.480      -5.135
  H      107.951       0.208      -2.295
  H      112.653      -6.006      -4.329
  H      108.286      -3.250       3.863
  H      112.668      -1.552      -0.548
  H      108.996      -2.570      -0.506
  H      109.481       0.220      -0.567
  H      111.377       0.020      -2.053
  H      109.691      -2.010      -3.646
  H      111.657      -1.652      -4.872
  H      112.447      -2.826       5.525
  H      113.490      -2.372       4.182
  H      112.661      -1.434      -3.422
  P      109.769       2.104      -3.167
  C      107.417       2.969      -2.591
  O      108.561       2.265      -2.123
  O      109.680       2.933      -4.399
  O      111.057       2.442      -2.281
  H      111.223       3.406      -2.289
  H      106.683       3.013      -1.814
  H      107.008       2.461      -3.440
  H      107.699       3.962      -2.871

 6  7  8  9  10  11  12  13  14  15  25  28  32  33  34  35 0
 6-311+G(2d,p)
 ****
 36  39  40 0
 6-311+G(2d,p)
 ****
 1  2  3  4  5  16  17  18  19  20  21  22  23  24 0
 3-21G
 ****
 26  27  29  30  31  37  38  41  42  43  44  45  46  47 0
 3-21G
 ****
 48 0
 3-21G
 ****


