%nproc=1
%NoSave
%Mem=1900MB
#P OB98/GEN NMR

erre ene a

0 1
  C     -427.591     -63.935     129.946
  O     -427.757     -63.685     128.560
  P     -427.362     -62.264     127.932
  C     -424.948     -62.989     127.419
  O     -425.779     -62.093     128.148
  C     -423.844     -62.227     126.690
  O     -422.986     -63.178     126.016
  C     -424.369     -61.257     125.636
  O     -423.531     -60.098     125.616
  C     -424.189     -61.998     124.321
  O     -424.057     -61.082     123.221
  C     -422.943     -62.838     124.617
  N     -422.239     -64.884     119.963
  C     -422.182     -63.607     120.400
  N     -422.405     -63.135     121.645
  C     -422.660     -64.141     122.495
  C     -422.751     -65.491     122.195
  C     -422.527     -65.858     120.857
  N     -422.575     -67.163     120.416
  N     -423.063     -66.223     123.326
  C     -423.140     -65.330     124.289
  N     -422.895     -64.059     123.839
  O     -428.178     -61.114     128.410
  O     -427.491     -62.469     126.353
  H     -424.843     -60.495     123.243
  H     -427.857     -61.667     125.935
  H     -421.923     -62.867     119.649
  H     -423.380     -65.549     125.318
  H     -422.021     -62.273     124.433
  H     -425.064     -62.628     124.133
  H     -425.409     -60.964     125.808
  H     -423.233     -61.701     127.432
  H     -425.569     -63.513     126.684
  H     -422.282     -67.342     119.468
  H     -422.616     -67.898     121.109
  H     -424.522     -63.728     128.103
  P     -424.239     -58.729     125.147
  C     -424.542     -58.150     127.667
  O     -425.138     -58.288     126.395
  O     -424.925     -58.873     123.828
  O     -422.992     -57.721     125.147
  H     -422.286     -58.021     125.761
  H     -425.318     -57.881     128.389
  H     -423.797     -57.349     127.648
  H     -424.075     -59.087     127.976
  H     -427.908     -64.932     130.169
  H     -428.180     -63.239     130.507
  H     -426.560     -63.822     130.208

 3  4  5  6  7  8  9  10  11  12  22  25  29  30  31  32 0
 6-311+G(2d,p)
 ****
 33  36  37 0
 6-311+G(2d,p)
 ****
 1  2  13  14  15  16  17  18  19  20  21  23  24  26 0
 3-21G
 ****
 27  28  34  35  38  39  40  41  42  43  44  45  46  47  48 0
 3-21G
 ****


