%nproc=1
%NoSave
%Mem=1900MB
#P OB98/GEN NMR

erre ene a

0 1
  C     -260.841     406.353     726.187
  O     -259.622     406.233     726.959
  P     -259.749     406.476     728.541
  C     -259.774     403.942     729.158
  O     -259.113     405.199     729.282
  C     -258.757     402.804     729.193
  O     -257.879     402.829     728.049
  C     -257.825     402.856     730.417
  O     -258.514     402.428     731.589
  C     -256.701     401.927     729.956
  O     -257.082     400.556     730.126
  C     -256.599     402.262     728.460
  N     -253.714     404.213     724.709
  C     -254.700     403.294     724.704
  N     -255.424     402.818     725.747
  C     -255.037     403.419     726.888
  C     -254.047     404.389     727.054
  C     -253.374     404.787     725.893
  N     -252.349     405.723     725.901
  N     -253.957     404.758     728.386
  C     -254.843     404.014     729.013
  N     -255.532     403.198     728.151
  O     -261.323     406.325     728.814
  O     -259.234     407.804     729.000
  H     -257.880     400.397     729.572
  H     -261.714     407.192     729.012
  H     -254.933     402.873     723.729
  H     -255.021     404.041     730.085
  H     -256.436     401.362     727.852
  H     -255.767     402.080     730.519
  H     -257.453     403.879     730.552
  H     -259.309     401.843     729.183
  H     -260.327     403.906     728.225
  H     -251.854     405.897     725.044
  H     -252.032     406.079     726.795
  H     -260.513     403.846     729.965
  P     -258.326     403.324     732.917
  C     -260.838     403.830     732.806
  O     -259.790     403.303     733.595
  O     -258.233     404.789     732.311
  O     -257.194     402.907     733.808
  H     -258.916     404.954     731.639
  H     -261.784     403.732     733.364
  H     -260.932     403.295     731.859
  H     -260.661     404.906     732.617
  H     -260.629     406.170     725.154
  H     -261.239     407.340     726.300
  H     -261.556     405.638     726.536

 3  4  5  6  7  8  9  10  11  12  22  25  29  30  31  32 0
 6-311+G(2d,p)
 ****
 33  36  37 0
 6-311+G(2d,p)
 ****
 1  2  13  14  15  16  17  18  19  20  21  23  24  26 0
 3-21G
 ****
 27  28  34  35  38  39  40  41  42  43  44  45  46  47  48 0
 3-21G
 ****


