%nproc=1
%NoSave
%Mem=1900MB
#P OB98/GEN NMR

erre ene a

0 1
  C     -264.230     -47.310     515.461
  O     -264.217     -47.652     514.072
  P     -263.353     -46.714     513.099
  C     -264.969     -44.702     512.798
  O     -263.761     -45.178     513.381
  C     -264.972     -43.167     512.698
  O     -263.885     -42.696     511.847
  C     -266.269     -42.583     512.119
  O     -266.500     -41.327     512.753
  C     -265.916     -42.345     510.662
  O     -266.807     -41.417     510.049
  C     -264.465     -41.887     510.815
  N     -263.408     -39.675     506.319
  C     -264.193     -39.296     507.355
  N     -264.438     -39.956     508.510
  C     -263.737     -41.107     508.548
  C     -262.913     -41.624     507.575
  C     -262.753     -40.858     506.404
  N     -261.980     -41.256     505.332
  N     -262.403     -42.855     507.962
  C     -262.929     -43.061     509.159
  N     -263.719     -42.024     509.566
  O     -263.983     -47.005     511.653
  O     -261.882     -47.000     513.129
  H     -266.782     -40.592     510.565
  H     -263.353     -47.541     511.122
  H     -264.695     -38.340     507.235
  H     -262.783     -43.956     509.758
  H     -264.392     -40.833     511.113
  H     -265.974     -43.296     510.102
  H     -267.152     -43.228     512.235
  H     -264.803     -42.751     513.697
  H     -265.831     -45.014     513.408
  H     -261.948     -40.663     504.531
  H     -261.525     -42.158     505.365
  H     -265.105     -45.163     511.815
  P     -267.552     -41.307     513.963
  C     -269.739     -41.416     512.556
  O     -268.851     -42.091     513.436
  O     -268.025     -39.776     514.026
  O     -266.988     -41.774     515.265
  H     -268.329     -39.558     514.930
  H     -270.069     -42.117     511.780
  H     -269.267     -40.559     512.066
  H     -270.610     -41.067     513.115
  H     -264.838     -48.010     515.995
  H     -264.630     -46.325     515.582
  H     -263.232     -47.340     515.845

 3  4  5  6  7  8  9  10  11  12  22  25  29  30  31  32 0
 6-311+G(2d,p)
 ****
 33  36  37 0
 6-311+G(2d,p)
 ****
 1  2  13  14  15  16  17  18  19  20  21  23  24  26 0
 3-21G
 ****
 27  28  34  35  38  39  40  41  42  43  44  45  46  47  48 0
 3-21G
 ****


