%nproc=1
%NoSave
%Mem=1900MB
#P OB98/GEN NMR

erre ene a

0 1
  C      186.932      10.246    -263.243
  O      186.098      10.662    -262.158
  P      185.438      12.118    -262.273
  C      187.127      13.114    -260.568
  O      185.764      12.922    -260.925
  C      187.250      14.253    -259.557
  O      186.895      15.526    -260.139
  C      186.333      14.093    -258.352
  O      186.828      13.108    -257.461
  C      186.341      15.513    -257.796
  O      187.540      15.750    -257.038
  C      186.365      16.359    -259.079
  N      182.302      19.062    -257.547
  C      183.458      18.742    -256.927
  N      184.492      18.015    -257.403
  C      184.249      17.614    -258.662
  C      183.120      17.867    -259.422
  C      182.107      18.627    -258.814
  N      180.923      18.941    -259.440
  N      183.233      17.287    -260.670
  C      184.401      16.675    -260.652
  N      185.056      16.854    -259.466
  O      183.870      11.823    -262.171
  O      185.784      12.834    -263.537
  H      188.298      15.545    -257.621
  H      183.448      11.956    -263.040
  H      183.569      19.117    -255.914
  H      184.810      16.095    -261.471
  H      187.025      17.229    -258.990
  H      185.491      15.722    -257.139
  H      185.321      13.824    -258.680
  H      188.295      14.301    -259.225
  H      187.721      13.342    -261.457
  H      180.217      19.422    -258.905
  H      180.732      18.548    -260.351
  H      187.520      12.177    -260.160
  P      186.253      11.618    -257.601
  C      184.593      11.894    -255.660
  O      185.774      11.255    -256.110
  O      187.595      10.767    -257.754
  O      185.233      11.434    -258.672
  H      188.271      11.037    -257.106
  H      184.365      11.535    -254.654
  H      183.757      11.654    -256.323
  H      184.744      12.976    -255.623
  H      187.309       9.264    -263.047
  H      187.750      10.928    -263.346
  H      186.361      10.235    -264.148

 3  4  5  6  7  8  9  10  11  12  22  25  29  30  31  32 0
 6-311+G(2d,p)
 ****
 33  36  37 0
 6-311+G(2d,p)
 ****
 1  2  13  14  15  16  17  18  19  20  21  23  24  26 0
 3-21G
 ****
 27  28  34  35  38  39  40  41  42  43  44  45  46  47  48 0
 3-21G
 ****


