%nproc=1
%NoSave
%Mem=1900MB
#P OB98/GEN NMR

erre ene a

0 1
  C     -662.458    1854.515     225.365
  O     -661.978    1853.344     224.756
  H     -661.623    1855.000     225.889
  H     -663.226    1854.277     226.082
  H     -662.838    1855.216     224.600
  P     -662.955    1852.499     223.802
  C     -661.127    1852.615     221.956
  O     -662.509    1852.802     222.275
  C     -660.949    1852.452     220.431
  O     -661.607    1851.245     220.006
  C     -661.539    1853.643     219.634
  O     -660.691    1853.912     218.545
  C     -662.871    1853.088     219.141
  O     -663.294    1853.714     217.942
  C     -662.550    1851.602     218.970
  N     -666.587    1849.928     216.410
  C     -665.492    1850.675     215.984
  N     -665.530    1851.067     214.697
  N     -664.521    1851.032     216.755
  C     -664.641    1850.559     218.028
  C     -665.647    1849.818     218.568
  C     -666.744    1849.443     217.710
  O     -667.727    1848.780     218.046
  N     -665.379    1849.531     219.907
  C     -664.251    1850.149     220.159
  N     -663.747    1850.769     219.062
  O     -664.405    1852.681     224.058
  O     -662.511    1850.986     223.998
  H     -664.012    1853.159     217.559
  H     -663.165    1850.497     224.542
  H     -667.307    1849.693     215.802
  H     -663.737    1850.150     221.114
  H     -662.088    1851.390     218.001
  H     -663.650    1853.212     219.911
  H     -666.240    1850.801     214.034
  H     -661.663    1854.529     220.252
  H     -664.727    1851.602     214.334
  H     -659.871    1852.362     220.232
  H     -660.819    1851.686     222.466
  H     -660.551    1853.439     222.337
  P     -659.852    1855.313     218.518
  C     -657.629    1854.129     219.073
  O     -658.567    1855.135     219.452
  O     -660.689    1856.523     218.764
  O     -659.228    1855.323     217.034
  H     -659.188    1856.246     216.736
  H     -656.821    1854.112     219.775
  H     -657.249    1854.346     218.097
  H     -658.114    1853.175     219.063

 6  7  8  9  10  11  12  13  14  15  26  29  33  34 0
 6-311+G(2d,p)
 ****
 36  38  39  40  41 0
 6-311+G(2d,p)
 ****
 1  2  3  4  5  16  17  18  19  20  21  22  23  24  25 0
 3-21G
 ****
 27  28  30  31  32  35  37  42  43  44  45  46  47 0
 3-21G
 ****
 48  49 0
 3-21G
 ****


