%nproc=1
%NoSave
%Mem=1900MB
#P OB98/GEN NMR

erre ene a

0 1
  C      666.203    -741.692     164.100
  O      665.881    -743.046     164.349
  H      666.771    -741.303     164.952
  H      665.286    -741.108     163.998
  H      666.811    -741.598     163.197
  P      665.185    -743.872     163.164
  C      663.857    -746.099     162.991
  O      664.591    -745.215     163.822
  C      663.831    -747.505     163.602
  O      665.187    -748.046     163.600
  C      663.314    -747.541     165.044
  O      662.520    -748.717     165.215
  C      664.583    -747.649     165.877
  O      664.350    -748.250     167.151
  C      665.495    -748.450     164.943
  N      666.908    -748.228     165.257
  C      667.581    -749.286     165.904
  O      666.981    -750.325     166.176
  N      668.894    -749.108     166.259
  C      669.464    -747.958     166.082
  N      670.753    -747.839     166.482
  C      668.767    -746.793     165.465
  C      667.511    -747.007     165.078
  O      666.425    -744.411     162.305
  O      664.206    -743.108     162.334
  H      665.182    -748.206     167.670
  H      666.198    -744.482     161.359
  H      669.277    -745.845     165.363
  H      666.928    -746.211     164.627
  H      665.275    -749.531     165.026
  H      664.995    -746.645     166.045
  H      662.722    -746.658     165.310
  H      663.226    -748.154     162.946
  H      671.193    -748.641     166.915
  H      664.348    -746.147     162.010
  H      671.288    -746.972     166.437
  H      662.834    -745.720     162.861
  P      660.942    -748.512     165.323
  C      659.002    -750.215     164.974
  O      660.253    -749.942     165.588
  O      660.507    -748.159     163.824
  O      660.535    -747.433     166.296
  H      660.272    -747.206     163.760
  H      658.679    -751.198     165.245
  H      659.106    -750.154     163.911
  H      658.279    -749.498     165.303

 6  7  8  9  10  11  12  13  14  15  16  26  30  31  32  33  35 0
 6-311+G(2d,p)
 ****
 37  38 0
 6-311+G(2d,p)
 ****
 1  2  3  4  5  17  18  19  20  21  22  23  24  25 0
 3-21G
 ****
 27  28  29  34  36  39  40  41  42  43  44  45  46 0
 3-21G
 ****


