%nproc=1
%NoSave
%Mem=1900MB
#P OB98/GEN NMR

erre ene a

0 1
  C      -70.042     115.991     -64.759
  O      -70.011     116.644     -66.010
  H      -70.780     116.490     -64.124
  H      -69.066     116.056     -64.273
  H      -70.331     114.944     -64.874
  P      -69.104     116.030     -67.180
  C      -67.174     117.725     -66.973
  O      -67.581     116.372     -66.814
  C      -65.893     117.789     -67.798
  O      -64.840     117.042     -67.149
  C      -66.026     117.191     -69.194
  O      -66.729     118.067     -70.052
  C      -64.562     116.975     -69.545
  O      -63.946     118.201     -69.966
  C      -63.983     116.515     -68.186
  N      -63.863     115.060     -68.083
  C      -62.857     114.473     -68.844
  O      -62.101     115.112     -69.571
  N      -62.778     113.106     -68.773
  C      -63.646     112.292     -68.106
  O      -63.672     111.073     -68.247
  C      -64.639     112.971     -67.262
  C      -64.712     114.303     -67.300
  O      -69.514     116.382     -68.571
  O      -69.184     114.450     -66.927
  H      -69.821     114.056     -67.554
  H      -64.208     118.337     -70.897
  H      -62.083     112.666     -69.358
  H      -65.305     112.360     -66.666
  H      -65.457     114.824     -66.709
  H      -62.988     116.950     -68.027
  H      -64.431     116.256     -70.355
  H      -66.524     116.216     -69.139
  H      -65.575     118.839     -67.855
  H      -66.991     118.152     -65.981
  H      -67.979     118.287     -67.459
  P      -67.502     117.519     -71.341
  C      -65.730     118.405     -72.966
  O      -66.421     117.256     -72.494
  O      -68.677     118.334     -71.768
  O      -67.954     116.038     -70.929
  H      -68.915     115.945     -71.078
  H      -65.037     118.116     -73.729
  H      -65.199     118.860     -72.156
  H      -66.433     119.104     -73.369

 6  7  8  9  10  11  12  13  14  15  16  27  31  32  33  34  35 0
 6-311+G(2d,p)
 ****
 36  37 0
 6-311+G(2d,p)
 ****
 1  2  3  4  5  17  18  19  20  21  22  23  24  25 0
 3-21G
 ****
 26  28  29  30  38  39  40  41  42  43  44  45 0
 3-21G
 ****


