%nproc=1
%NoSave
%Mem=1900MB
#P OB98/GEN NMR

erre ene a

0 1
  C      -68.190     -25.001      62.475
  O      -67.128     -25.260      61.580
  H      -68.061     -23.999      62.894
  H      -68.180     -25.727      63.292
  H      -69.149     -25.043      61.951
  P      -67.154     -26.672      60.820
  C      -65.894     -27.777      62.809
  O      -67.034     -27.798      61.958
  C      -66.186     -28.566      64.082
  O      -67.132     -27.834      64.895
  C      -66.822     -29.930      63.841
  O      -65.864     -30.901      63.459
  C      -67.457     -30.204      65.198
  O      -66.507     -30.747      66.124
  C      -67.888     -28.804      65.653
  N      -72.444     -29.044      67.926
  C      -71.192     -29.263      68.385
  N      -70.024     -29.159      67.717
  C      -70.241     -28.775      66.447
  C      -71.457     -28.522      65.837
  C      -72.603     -28.667      66.636
  N      -73.879     -28.479      66.160
  N      -71.275     -28.197      64.508
  C      -69.970     -28.243      64.321
  N      -69.308     -28.583      65.466
  O      -65.727     -26.714      60.094
  O      -68.279     -26.857      59.857
  H      -67.003     -30.965      66.937
  H      -65.817     -26.391      59.178
  H      -71.119     -29.567      69.426
  H      -69.466     -28.049      63.382
  H      -67.670     -28.627      66.713
  H      -68.276     -30.920      65.116
  H      -67.616     -29.850      63.089
  H      -65.253     -28.666      64.652
  H      -65.659     -26.739      63.073
  H      -65.043     -28.210      62.273
  H      -74.656     -28.623      66.784
  H      -74.013     -28.302      65.173
  P      -66.344     -32.133      62.556
  C      -66.217     -33.620      64.685
  O      -66.959     -33.245      63.535
  O      -64.968     -32.782      62.060
  O      -67.229     -31.761      61.414
  H      -64.767     -32.501      61.149
  H      -66.757     -34.365      65.231
  H      -66.065     -32.763      65.307
  H      -65.269     -34.015      64.385

 6  7  8  9  10  11  12  13  14  15  25  28  32  33  34  35 0
 6-311+G(2d,p)
 ****
 36  37  40 0
 6-311+G(2d,p)
 ****
 1  2  3  4  5  16  17  18  19  20  21  22  23  24 0
 3-21G
 ****
 26  27  29  30  31  38  39 41  42  43  44  45  46  47  48 0
 3-21G
 ****


