%nproc=1
%NoSave
%Mem=1900MB
#P OB98/GEN NMR

erre ene a

0 1
  C      -51.550    -197.901     125.472
  O      -51.017    -198.456     126.669
  P      -49.459    -198.212     126.986
  C      -49.093    -200.744     126.575
  O      -48.840    -199.633     127.416
  C      -48.411    -202.009     127.110
  O      -48.777    -203.129     126.255
  C      -46.882    -201.944     127.147
  O      -46.451    -202.719     128.275
  C      -46.469    -202.654     125.870
  O      -45.128    -203.130     125.928
  C      -47.539    -203.747     125.809
  N      -46.033    -207.389     122.546
  C      -45.702    -207.138     123.829
  N      -46.141    -206.144     124.638
  C      -47.019    -205.364     123.987
  C      -47.434    -205.478     122.670
  C      -46.904    -206.548     121.926
  N      -47.251    -206.812     120.624
  N      -48.332    -204.468     122.353
  C      -48.456    -203.761     123.456
  N      -47.699    -204.289     124.474
  O      -49.504    -197.390     128.362
  O      -48.702    -197.469     125.937
  H      -44.531    -202.357     125.907
  H      -49.204    -196.474     128.211
  H      -44.978    -207.829     124.277
  H      -49.061    -202.881     123.566
  H      -47.316    -204.582     126.490
  H      -46.560    -201.971     125.021
  H      -46.478    -200.926     127.208
  H      -48.817    -202.220     128.104
  H      -48.686    -200.526     125.578
  H      -46.935    -207.673     120.206
  H      -48.040    -206.306     120.214
  H      -50.171    -200.902     126.477
  P      -45.413    -202.028     129.281
  C      -43.348    -202.725     127.869
  O      -44.020    -202.794     129.113
  O      -45.937    -202.484     130.725
  O      -45.354    -200.530     129.162
  H      -45.689    -201.816     131.391
  H      -42.269    -202.746     128.037
  H      -43.601    -201.810     127.320
  H      -43.637    -203.590     127.260
  H      -52.589    -198.144     125.398
  H      -51.028    -198.304     124.629
  H      -51.433    -196.838     125.489

 3  4  5  6  7  8  9  10  11  12  22  25  29  30  31  32 0
 6-311+G(2d,p)
 ****
 33  36  37 0
 6-311+G(2d,p)
 ****
 1  2  13  14  15  16  17  18  19  20  21  23  24  26 0
 3-21G
 ****
 27  28  34  35  38  39  40  41  42  43  44  45  46  47  48 0
 3-21G
 ****


