%nproc=1
%NoSave
%Mem=1900MB
#P OB98/GEN NMR

erre ene a

0 1
  C      -42.588     -15.899     -19.492
  O      -41.446     -16.260     -18.728
  P      -41.650     -17.342     -17.558
  C      -43.127     -17.426     -15.427
  O      -42.578     -16.622     -16.465
  C      -43.227     -16.632     -14.131
  O      -41.908     -16.322     -13.647
  C      -43.937     -15.292     -14.262
  O      -45.349     -15.436     -14.244
  C      -43.444     -14.575     -13.014
  O      -44.224     -14.989     -11.877
  C      -41.999     -15.089     -12.888
  N      -38.076     -12.130     -11.669
  C      -38.842     -12.958     -10.872
  N      -38.494     -13.027      -9.569
  N      -39.857     -13.653     -11.312
  C      -40.062     -13.517     -12.643
  C      -39.374     -12.727     -13.536
  C      -38.285     -11.922     -13.027
  O      -37.614     -11.122     -13.672
  N      -39.868     -12.866     -14.807
  C      -40.826     -13.763     -14.692
  N      -41.003     -14.166     -13.391
  O      -40.215     -17.385     -16.852
  O      -42.088     -18.691     -18.012
  H      -44.279     -15.963     -11.907
  H      -40.088     -18.248     -16.411
  H      -37.296     -11.630     -11.282
  H      -41.412     -14.145     -15.516
  H      -41.754     -15.334     -11.848
  H      -43.532     -13.487     -13.084
  H      -37.648     -12.620      -9.201
  H      -43.599     -14.752     -15.154
  H      -39.021     -13.656      -8.977
  H      -43.725     -17.260     -13.382
  H      -42.482     -18.294     -15.263
  H      -44.116     -17.779     -15.739
  P      -46.163     -14.683     -15.407
  C      -46.328     -12.191     -16.123
  O      -45.948     -13.121     -15.126
  O      -47.690     -14.942     -15.013
  O      -45.845     -15.158     -16.785
  H      -48.256     -14.903     -15.808
  H      -47.232     -12.513     -16.647
  H      -45.512     -12.074     -16.841
  H      -46.525     -11.227     -15.649
  H      -42.309     -15.176     -20.230
  H      -43.332     -15.481     -18.846
  H      -42.983     -16.768     -19.975

 3  4  5  6  7  8  9  10  11  12  23  26  30  31  33  0
 6-311+G(2d,p)
 ****
 35  36  37  38 0
 6-311+G(2d,p)
 ****
 1  2  13  14  15  16  17  18  19  20  21  22  24  25  27  28  29 0
 3-21G
 ****
 32  34  39  40  41  42  43  44  45  46  47  48  49 0
 3-21G
 ****


