%nproc=1
%NoSave
%Mem=1900MB
#P OB98/GEN NMR

erre ene a

0 1
  C      426.897    -463.097    -510.671
  O      426.500    -461.903    -511.343
  P      425.197    -461.113    -510.838
  C      426.788    -459.093    -510.548
  O      425.644    -459.793    -510.055
  C      426.845    -457.691    -509.934
  O      425.940    -456.779    -510.606
  C      426.415    -457.649    -508.475
  O      427.295    -458.271    -507.538
  C      426.098    -456.190    -508.262
  O      427.276    -455.429    -507.986
  C      425.513    -455.797    -509.644
  N      424.047    -455.683    -509.620
  C      423.544    -454.415    -509.344
  O      424.249    -453.442    -509.084
  N      422.178    -454.313    -509.334
  C      421.288    -455.342    -509.533
  O      420.072    -455.188    -509.493
  C      421.881    -456.656    -509.792
  C      423.210    -456.771    -509.825
  O      424.169    -461.948    -510.152
  O      424.604    -460.518    -512.208
  H      427.804    -455.389    -508.802
  H      423.628    -460.612    -512.173
  H      421.784    -453.401    -509.143
  H      421.213    -457.484    -509.956
  H      423.669    -457.725    -510.017
  H      425.917    -454.831    -509.967
  H      425.417    -456.043    -507.417
  H      425.465    -458.203    -508.394
  H      427.860    -457.294    -510.070
  H      426.741    -459.034    -511.638
  H      427.689    -459.674    -510.301
  P      426.769    -459.087    -506.252
  C      426.859    -461.414    -507.400
  O      426.068    -460.433    -506.770
  O      426.073    -458.319    -505.182
  O      428.165    -459.649    -505.657
  H      428.070    -459.695    -504.688
  H      426.220    -462.257    -507.699
  H      427.625    -461.789    -506.725
  H      427.316    -460.997    -508.302
  H      427.778    -463.491    -511.134
  H      426.109    -463.819    -510.731
  H      427.102    -462.877    -509.644

 3  4  5  6  7  8  9  10  11  12  13  23  28  29  30  31  32 0
 6-311+G(2d,p)
 ****
 33  34 0
 6-311+G(2d,p)
 ****
 1  2  14  15  16  17  18  19  20  21  22  24  25  26  27 0
 3-21G
 ****
 35  36  37  38  39  40  41  42  43  44  45 0
 3-21G
 ****


