%nproc=1
%NoSave
%Mem=1900MB
#P OB98/GEN NMR

erre ene a

0 1
  C      -32.180      -8.141     -68.416
  O      -30.771      -8.327     -68.266
  P      -29.874      -8.604     -69.563
  C      -29.808      -6.240     -70.593
  O      -29.074      -7.264     -69.939
  C      -28.977      -4.952     -70.708
  O      -28.380      -4.638     -69.421
  C      -27.847      -5.059     -71.740
  O      -27.835      -3.978     -72.672
  C      -26.600      -5.213     -70.887
  O      -25.416      -4.811     -71.558
  C      -26.966      -4.445     -69.611
  N      -26.184      -4.896     -68.457
  C      -24.832      -4.580     -68.457
  O      -24.272      -4.021     -69.399
  N      -24.120      -4.984     -67.359
  C      -24.604      -5.726     -66.323
  O      -23.915      -6.103     -65.385
  C      -26.028      -6.086     -66.407
  C      -26.740      -5.661     -67.454
  O      -30.571      -9.265     -70.705
  O      -28.706      -9.548     -68.992
  H      -24.644      -5.082     -71.013
  H      -28.506     -10.222     -69.672
  H      -23.141      -4.746     -67.337
  H      -26.441      -6.693     -65.615
  H      -27.785      -5.922     -67.548
  H      -26.778      -3.373     -69.732
  H      -26.484      -6.275     -70.636
  H      -27.965      -5.948     -72.370
  H      -29.665      -4.145     -70.976
  H      -30.715      -6.026     -70.026
  H      -30.138      -6.599     -71.573
  P      -28.257      -4.102     -74.210
  C      -30.825      -3.844     -74.444
  O      -29.562      -3.208     -74.447
  O      -28.337      -5.489     -74.752
  O      -27.106      -3.281     -74.966
  H      -26.864      -3.749     -75.787
  H      -31.539      -3.205     -74.969
  H      -31.163      -3.976     -73.412
  H      -30.783      -4.815     -74.944
  H      -32.621      -7.968     -67.457
  H      -32.611      -9.017     -68.854
  H      -32.363      -7.299     -69.050

 3  4  5  6  7  8  9  10  11  12  13  23  28  29  30  31  32 0
 6-311+G(2d,p)
 ****
 33  34 0
 6-311+G(2d,p)
 ****
 1  2  14  15  16  17  18  19  20  21  22  24  25  26  27 0
 3-21G
 ****
 35  36  37  38  39  40  41  42  43  44  45 0
 3-21G
 ****


