%nproc=1
%NoSave
%Mem=1900MB
#P OB98/GEN NMR

erre ene a

0 1
  C      538.154     418.681    -635.174
  O      539.444     418.330    -635.688
  P      540.546     419.485    -635.891
  C      543.051     418.753    -635.751
  O      541.877     418.878    -636.544
  C      543.188     417.340    -635.171
  O      543.438     416.382    -636.240
  C      544.323     417.178    -634.151
  O      543.890     416.198    -633.191
  C      545.450     416.623    -635.003
  O      546.457     415.971    -634.240
  C      544.659     415.682    -635.916
  N      545.369     415.297    -637.135
  C      546.262     414.231    -637.057
  O      546.540     413.635    -636.022
  N      546.875     413.880    -638.234
  C      546.714     414.497    -639.449
  O      547.318     414.152    -640.456
  C      545.780     415.631    -639.463
  C      545.162     415.968    -638.327
  O      541.010     419.768    -634.382
  O      540.043     420.744    -636.522
  H      547.039     416.666    -633.874
  H      541.045     420.726    -634.223
  H      547.516     413.105    -638.198
  H      545.624     416.137    -640.402
  H      544.463     416.796    -638.322
  H      544.371     414.783    -635.369
  H      545.926     417.436    -635.555
  H      544.579     418.112    -633.647
  H      542.226     417.068    -634.720
  H      543.004     419.476    -634.926
  H      543.924     418.997    -636.368
  P      542.986     416.684    -631.956
  C      541.497     414.678    -631.182
  O      542.700     415.399    -631.047
  O      541.588     416.920    -632.701
  O      543.494     417.901    -631.259
  H      541.361     416.194    -633.315
  H      541.208     414.568    -632.228
  H      540.701     415.190    -630.639
  H      541.637     413.682    -630.754
  H      537.548     417.802    -635.102
  H      537.687     419.384    -635.832
  H      538.264     419.119    -634.204

 3  4  5  6  7  8  9  10  11  12  13  23  28  29  30  31  32 0
 6-311+G(2d,p)
 ****
 33  34 0
 6-311+G(2d,p)
 ****
 1  2  14  15  16  17  18  19  20  21  22  24  25  26 0
 3-21G
 ****
 27  35  36  37  38  39  40  41  42  43  44  45 0
 3-21G
 ****


