%nproc=1
%NoSave
%Mem=1900MB
#P OB98/GEN NMR

erre ene a

0 1
  C     -438.358     649.259    -204.017
  O     -439.520     650.050    -203.804
  P     -440.684     649.977    -204.908
  C     -440.077     652.318    -205.827
  O     -440.229     650.933    -206.119
  C     -440.903     653.163    -206.796
  O     -440.866     654.553    -206.348
  C     -440.405     653.132    -208.249
  O     -441.527     653.006    -209.132
  C     -439.801     654.513    -208.455
  O     -439.803     654.906    -209.826
  C     -440.714     655.346    -207.552
  N     -440.199     660.097    -209.238
  C     -440.993     659.067    -209.713
  N     -441.703     659.332    -210.832
  N     -441.076     657.890    -209.148
  C     -440.336     657.777    -208.016
  C     -439.509     658.721    -207.450
  C     -439.380     660.008    -208.118
  O     -438.625     660.922    -207.794
  N     -438.932     658.247    -206.291
  C     -439.400     657.019    -206.180
  N     -440.210     656.672    -207.221
  O     -441.885     650.781    -204.220
  O     -441.111     648.599    -205.297
  H     -439.041     654.455    -210.246
  H     -442.682     650.214    -204.176
  H     -440.150     660.972    -209.727
  H     -439.140     656.337    -205.371
  H     -441.697     655.468    -208.003
  H     -438.763     654.514    -208.094
  H     -441.720     660.220    -211.289
  H     -439.686     652.323    -208.456
  H     -442.321     658.596    -211.181
  H     -441.948     652.841    -206.734
  H     -439.025     652.603    -205.921
  H     -440.407     652.496    -204.799
  P     -441.436     651.858    -210.255
  C     -440.629     653.538    -212.081
  O     -440.352     652.368    -211.324
  O     -442.834     651.975    -211.026
  O     -441.214     650.490    -209.690
  H     -443.062     651.130    -211.449
  H     -441.523     654.062    -211.717
  H     -440.785     653.252    -213.123
  H     -439.765     654.209    -212.015
  H     -437.673     649.406    -203.208
  H     -437.893     649.549    -204.936
  H     -438.634     648.226    -204.067

 3  4  5  6  7  8  9  10  11  12  23  26  30  31  33  0
 6-311+G(2d,p)
 ****
 35  36  37  38 0
 6-311+G(2d,p)
 ****
 1  2  13  14  15  16  17  18  19  20  21  22  24  25  27  28  29 0
 3-21G
 ****
 32  34  39  40  41  42  43  44  45  46  47  48  49 0
 3-21G
 ****


