%nproc=1
%NoSave
%Mem=1900MB
#P OB98/GEN NMR

erre ene a

0 1
  C     -240.283      11.695     -96.843
  O     -240.362      10.312     -96.570
  H     -239.339      11.900     -97.357
  H     -240.308      12.270     -95.913
  H     -241.109      11.998     -97.490
  P     -241.629       9.811     -95.724
  C     -240.538       9.001     -93.506
  O     -241.269      10.023     -94.177
  C     -241.063       8.847     -92.084
  O     -241.187      10.149     -91.461
  C     -242.453       8.227     -91.997
  O     -242.433       6.816     -92.142
  C     -242.873       8.657     -90.603
  O     -242.378       7.763     -89.598
  C     -242.234      10.052     -90.475
  N     -243.222      11.120     -90.618
  C     -242.865      12.346     -90.060
  O     -241.796      12.547     -89.487
  N     -243.805      13.335     -90.154
  C     -245.052      13.207     -90.690
  O     -245.869      14.120     -90.692
  C     -245.381      11.881     -91.245
  C     -244.464      10.911     -91.181
  O     -241.586       8.221     -95.912
  O     -242.937      10.389     -96.148
  H     -242.297       7.944     -96.519
  H     -241.404       7.830     -89.633
  H     -243.566      14.235     -89.761
  H     -246.362      11.747     -91.678
  H     -244.682       9.926     -91.574
  H     -241.752      10.162     -89.494
  H     -243.957       8.677     -90.512
  H     -243.121       8.691     -92.732
  H     -240.341       8.254     -91.507
  H     -239.478       9.274     -93.466
  H     -240.638       8.067     -94.066
  P     -243.283       6.179     -93.346
  C     -245.593       6.539     -92.138
  O     -244.746       6.829     -93.239
  O     -243.465       4.678     -92.813
  O     -242.612       6.307     -94.673
  H     -243.435       4.631     -91.842
  H     -246.518       7.066     -92.251
  H     -245.116       6.846     -91.231
  H     -245.784       5.487     -92.102

 6  7  8  9  10  11  12  13  14  15  16  27  31  32  33  34  35 0
 6-311+G(2d,p)
 ****
 36  37 0
 6-311+G(2d,p)
 ****
 1  2  3  4  5  17  18  19  20  21  22  23  24  25 0
 3-21G
 ****
 26  28  29  30  38  39  40  41  42  43  44  45 0
 3-21G
 ****


