%nproc=1
%NoSave
%Mem=1900MB
#P OB98/GEN NMR

erre ene a

0 1
  C       83.984      85.041     371.722
  O       83.817      85.566     373.045
  P       84.838      86.722     373.483
  C       86.484      84.896     374.308
  O       85.819      86.118     374.597
  C       87.718      84.723     375.206
  O       88.684      85.781     375.026
  C       87.384      84.727     376.694
  O       86.886      83.447     377.077
  C       88.732      85.046     377.319
  O       89.544      83.866     377.462
  C       89.352      86.010     376.287
  N       91.021      89.646     379.408
  C       91.228      88.279     379.449
  N       91.999      87.818     380.454
  N       90.710      87.442     378.587
  C       89.952      88.042     377.637
  C       89.704      89.386     377.475
  C       90.273      90.304     378.436
  O       90.143      91.524     378.424
  N       88.942      89.625     376.355
  C       88.630      88.416     375.924
  N       89.275      87.424     376.626
  O       83.908      87.749     374.288
  O       85.511      87.393     372.323
  H       89.585      83.403     376.603
  H       83.798      88.570     373.779
  H       91.437      90.248     380.100
  H       87.974      88.204     375.091
  H       90.420      85.791     376.132
  H       88.624      85.470     378.322
  H       92.431      88.408     381.156
  H       86.658      85.521     376.921
  H       92.176      86.821     380.500
  H       88.193      83.775     374.933
  H       86.792      84.875     373.258
  H       85.786      84.074     374.447
  P       85.300      83.246     377.124
  C       85.271      83.107     379.719
  O       84.946      82.483     378.487
  O       85.038      82.150     375.990
  O       84.503      84.491     376.865
  H       84.260      82.409     375.450
  H       84.557      82.778     380.476
  H       85.236      84.196     379.640
  H       86.280      82.795     380.019
  H       83.251      84.282     371.545
  H       84.963      84.621     371.626
  H       83.862      85.828     371.008

 3  4  5  6  7  8  9  10  11  12  23  26  30  31 0
 6-311+G(2d,p)
 ****
 33  35  36  37  38 0
 6-311+G(2d,p)
 ****
 1  2  13  14  15  16  17  18  19  20  21  22  24  25 0
 3-21G
 ****
 27  28  29  32  34  39  40  41  42  43  44  45  46  47  48  49 0
 3-21G
 ****


