%nproc=1
%NoSave
%Mem=1900MB
#P OB98/GEN NMR

erre ene a

0 1
  C       14.109      39.258     303.030
  O       12.785      39.511     303.456
  H       14.777      39.970     303.519
  H       14.183      39.392     301.949
  H       14.415      38.243     303.302
  P       11.664      38.440     303.049
  C       10.390      40.011     301.417
  O       11.169      38.835     301.573
  C        9.709      40.009     300.048
  O       10.739      40.015     299.019
  C        8.817      38.786     299.798
  O        7.685      39.203     299.027
  C        9.696      37.889     298.946
  O        8.973      36.957     298.154
  C       10.450      38.931     298.114
  N       11.676      38.399     297.524
  C       12.000      38.817     296.237
  O       11.379      39.662     295.597
  N       13.101      38.216     295.682
  C       13.870      37.250     296.260
  O       14.832      36.735     295.701
  C       13.473      36.844     297.615
  C       12.410      37.426     298.174
  O       10.426      38.845     303.977
  O       12.055      37.009     303.210
  H       10.467      38.371     304.827
  H        8.348      36.492     298.749
  H       13.349      38.505     294.749
  H       14.053      36.071     298.102
  H       12.076      37.134     299.165
  H        9.804      39.329     297.323
  H       10.385      37.328     299.585
  H        8.478      38.284     300.709
  H        9.138      40.939     299.938
  H       11.038      40.889     301.490
  H        9.642      40.057     302.215
  P        6.234      38.746     299.539
  C        5.945      36.677     297.956
  O        6.164      37.166     299.271
  O        5.296      39.382     298.415
  O        5.945      39.184     300.934
  H        5.700      39.375     297.531
  H        5.929      35.607     297.971
  H        6.733      37.013     297.315
  H        5.008      37.042     297.591

 6  7  8  9  10  11  12  13  14  15  16  27  31  32  33  34  35 0
 6-311+G(2d,p)
 ****
 36  37 0
 6-311+G(2d,p)
 ****
 1  2  3  4  5  17  18  19  20  21  22  23  24  25 0
 3-21G
 ****
 26  28  29  30  38  39  40  41  42  43  44  45 0
 3-21G
 ****


