%nproc=1
%NoSave
%Mem=1900MB
#P OB98/GEN NMR

erre ene a

0 1
  C      -16.646      12.386     -11.838
  O      -17.449      13.325     -11.154
  H      -15.596      12.604     -11.626
  H      -16.814      12.473     -12.915
  H      -16.865      11.365     -11.513
  P      -19.015      13.032     -10.994
  C      -19.084      14.592      -8.938
  O      -19.653      14.272     -10.199
  C      -19.828      15.758      -8.277
  O      -19.452      17.000      -8.921
  C      -21.343      15.601      -8.459
  O      -22.077      16.207      -7.399
  C      -21.607      16.365      -9.747
  O      -22.965      16.782      -9.880
  C      -20.605      17.513      -9.617
  N      -21.861      20.456     -13.583
  C      -22.644      20.036     -12.529
  N      -23.937      20.433     -12.537
  N      -22.203      19.279     -11.555
  C      -20.912      18.896     -11.713
  C      -20.044      19.228     -12.730
  C      -20.533      20.096     -13.778
  O      -19.889      20.486     -14.751
  N      -18.817      18.630     -12.559
  C      -18.944      17.936     -11.447
  N      -20.194      18.076     -10.888
  O      -19.074      11.857      -9.905
  O      -19.736      12.650     -12.252
  H      -22.979      17.529     -10.508
  H      -19.890      11.339     -10.006
  H      -22.246      21.052     -14.299
  H      -18.167      17.323     -11.000
  H      -21.030      18.327      -9.016
  H      -21.389      15.700     -10.590
  H      -24.361      20.862     -13.345
  H      -21.638      14.555      -8.544
  H      -24.584      19.904     -11.946
  H      -19.535      15.845      -7.222
  H      -18.037      14.865      -9.113
  H      -19.090      13.713      -8.287
  P      -23.148      15.300      -6.622
  C      -22.350      15.985      -4.218
  O      -23.391      15.949      -5.179
  O      -22.338      13.950      -6.318
  O      -24.396      15.042      -7.399
  H      -22.639      13.237      -6.914
  H      -22.705      16.454      -3.325
  H      -21.523      16.541      -4.608
  H      -22.035      14.987      -3.996

 6  7  8  9  10  11  12  13  14  15  26  29  33  34 0
 6-311+G(2d,p)
 ****
 36  38  39  40  41 0
 6-311+G(2d,p)
 ****
 1  2  3  4  5  16  17  18  19  20  21  22  23  24  25 0
 3-21G
 ****
 27  28  30  31  32  35  37  42  43  44  45  46  47 0
 3-21G
 ****
 48  49 0
 3-21G
 ****


