%nproc=1
%NoSave
%Mem=1900MB
#P OB98/GEN NMR

erre ene a

0 1
  C      254.800    -778.106     429.975
  O      254.311    -777.860     428.670
  P      255.059    -776.801     427.727
  C      256.192    -776.808     425.418
  O      255.379    -777.533     426.333
  C      256.718    -777.736     424.320
  O      257.578    -778.749     424.894
  C      255.632    -778.490     423.572
  O      254.975    -777.650     422.644
  C      256.438    -779.626     422.954
  O      257.088    -779.182     421.749
  C      257.472    -779.915     424.049
  N      257.882    -784.984     424.396
  C      258.178    -784.125     423.400
  N      258.006    -782.791     423.369
  C      257.440    -782.356     424.513
  C      257.040    -783.127     425.600
  C      257.312    -784.503     425.522
  N      257.072    -785.384     426.561
  N      256.467    -782.324     426.563
  C      256.501    -781.105     426.063
  N      257.137    -781.073     424.856
  O      256.222    -776.104     428.347
  O      253.916    -775.760     427.335
  H      257.494    -778.316     421.946
  H      254.162    -774.875     427.652
  H      258.638    -784.567     422.519
  H      256.104    -780.226     426.540
  H      258.472    -780.093     423.628
  H      255.816    -780.488     422.684
  H      254.910    -778.910     424.288
  H      257.323    -777.134     423.625
  H      257.029    -776.366     425.968
  H      257.426    -786.326     426.454
  H      256.931    -785.003     427.492
  H      255.602    -775.993     424.977
  P      253.581    -778.098     422.009
  C      251.424    -776.899     421.289
  O      252.614    -776.806     422.044
  O      252.980    -779.346     422.572
  O      253.903    -778.254     420.452
  H      253.343    -778.956     420.071
  H      251.646    -776.747     420.224
  H      250.732    -776.118     421.626
  H      250.946    -777.876     421.432
  H      254.182    -778.835     430.456
  H      254.784    -777.197     430.539
  H      255.804    -778.472     429.917

 3  4  5  6  7  8  9  10  11  12  22  25  29  30  31  32 0
 6-311+G(2d,p)
 ****
 33  36  37 0
 6-311+G(2d,p)
 ****
 1  2  13  14  15  16  17  18  19  20  21  23  24  26 0
 3-21G
 ****
 27  28  34  35  38  39  40  41  42  43  44  45  46  47  48 0
 3-21G
 ****


