%nproc=1
%NoSave
%Mem=1900MB
#P OB98/GEN NMR

erre ene a

0 1
  C     -199.567     130.867     263.419
  O     -198.492     129.939     263.543
  P     -197.610     129.612     262.246
  C     -195.688     130.805     263.491
  O     -196.332     130.583     262.239
  C     -194.202     131.149     263.282
  O     -193.566     130.061     262.561
  C     -193.943     132.408     262.447
  O     -193.864     133.661     263.122
  C     -192.547     132.118     261.901
  O     -191.554     132.480     262.881
  C     -192.542     130.606     261.702
  N     -190.335     129.294     257.279
  C     -189.816     129.624     258.483
  N     -190.475     129.962     259.610
  C     -191.803     129.923     259.417
  C     -192.472     129.601     258.246
  C     -191.680     129.276     257.137
  N     -192.202     128.949     255.907
  N     -193.836     129.679     258.430
  C     -193.986     130.061     259.684
  N     -192.789     130.208     260.326
  O     -198.354     129.523     260.956
  O     -196.955     128.197     262.621
  H     -191.584     133.452     262.960
  H     -196.913     127.644     261.817
  H     -188.732     129.620     258.549
  H     -194.939     130.239     260.164
  H     -191.591     130.148     262.000
  H     -192.324     132.698     261.000
  H     -194.655     132.482     261.621
  H     -193.716     131.241     264.261
  H     -195.774     129.911     264.110
  H     -191.562     128.774     255.148
  H     -193.202     128.988     255.768
  H     -196.235     131.599     264.002
  P     -194.671     134.941     262.602
  C     -196.430     134.429     264.472
  O     -196.174     134.741     263.119
  O     -194.549     135.217     261.144
  O     -194.119     136.108     263.548
  H     -194.383     136.030     264.478
  H     -197.498     134.547     264.665
  H     -195.875     135.096     265.136
  H     -196.148     133.390     264.669
  H     -200.055     130.977     264.365
  H     -200.268     130.506     262.696
  H     -199.185     131.815     263.103

 3  4  5  6  7  8  9  10  11  12  22  25  29  30  31  32 0
 6-311+G(2d,p)
 ****
 33  36  37 0
 6-311+G(2d,p)
 ****
 1  2  13  14  15  16  17  18  19  20  21  23  24  26 0
 3-21G
 ****
 27  28  34  35  38  39  40  41  42  43  44  45  46  47  48 0
 3-21G
 ****


