%nproc=1
%NoSave
%Mem=1900MB
#P OB98/GEN NMR

erre ene a

0 1
  C      390.966      19.591    -294.194
  O      390.268      18.397    -294.492
  H      391.226      19.608    -293.133
  H      391.885      19.615    -294.783
  H      390.361      20.467    -294.445
  P      388.753      18.285    -293.977
  C      387.790      17.683    -296.312
  O      388.010      17.263    -294.972
  C      388.454      16.719    -297.290
  O      389.858      17.092    -297.429
  C      388.411      15.244    -296.854
  O      388.193      14.433    -298.014
  C      389.812      14.987    -296.329
  O      390.185      13.617    -296.405
  C      390.638      15.901    -297.233
  N      395.537      16.816    -298.247
  C      394.441      16.813    -299.036
  N      393.156      16.612    -298.671
  C      393.059      16.466    -297.337
  C      394.085      16.455    -296.408
  C      395.384      16.627    -296.918
  N      396.517      16.565    -296.132
  N      393.585      16.224    -295.140
  C      392.285      16.072    -295.306
  N      391.919      16.206    -296.619
  O      388.143      19.712    -294.381
  O      388.585      17.998    -292.522
  H      391.029      13.495    -295.930
  H      388.306      20.352    -293.664
  H      394.613      16.980    -300.093
  H      391.576      15.832    -294.526
  H      390.841      15.452    -298.211
  H      389.877      15.308    -295.285
  H      387.639      15.030    -296.108
  H      387.992      16.843    -298.276
  H      388.223      18.681    -296.451
  H      397.409      16.594    -296.600
  H      396.422      16.315    -295.163
  H      386.714      17.733    -296.504
  P      387.883      12.874    -297.789
  C      385.349      12.828    -298.390
  O      386.676      12.447    -298.749
  O      387.225      12.845    -296.328
  O      389.098      12.002    -297.862
  H      387.456      12.014    -295.871
  H      384.663      12.469    -299.129
  H      385.287      13.895    -298.334
  H      385.102      12.406    -297.438

 6  7  8  9  10  11  12  13  14  15  25  28  32  33  34  35 0
 6-311+G(2d,p)
 ****
 36  39  40 0
 6-311+G(2d,p)
 ****
 1  2  3  4  5  16  17  18  19  20  21  22  23  24 0
 3-21G
 ****
 26  27  29  30  31  37  38  41  42  43  44  45  46  47 0
 3-21G
 ****
 48 0
 3-21G
 ****


