%nproc=1
%NoSave
%Mem=1900MB
#P OB98/GEN NMR

erre ene a

0 1
  C     -268.689    -257.727     543.800
  O     -268.686    -258.934     544.537
  H     -268.598    -257.967     542.737
  H     -267.844    -257.107     544.095
  H     -269.627    -257.188     543.957
  P     -268.749    -258.865     546.148
  C     -270.841    -260.374     546.279
  O     -269.478    -260.206     546.645
  C     -271.314    -261.800     546.580
  O     -270.766    -262.668     545.558
  C     -270.834    -262.293     547.963
  O     -271.878    -262.809     548.774
  C     -269.686    -263.250     547.598
  O     -269.431    -264.255     548.550
  C     -270.081    -263.768     546.199
  N     -268.957    -264.227     545.379
  C     -268.349    -265.415     545.748
  O     -268.689    -266.126     546.698
  N     -267.283    -265.809     544.965
  C     -266.789    -265.118     543.896
  O     -265.837    -265.510     543.226
  C     -267.463    -263.838     543.567
  C     -268.490    -263.462     544.333
  O     -269.306    -257.605     546.716
  O     -267.224    -259.104     546.602
  H     -268.716    -264.821     548.194
  H     -266.837    -258.249     546.890
  H     -266.856    -266.679     545.210
  H     -267.078    -263.278     542.733
  H     -269.000    -262.520     544.121
  H     -270.793    -264.593     546.294
  H     -268.765    -262.667     547.497
  H     -270.415    -261.465     548.549
  H     -272.411    -261.841     546.495
  H     -270.936    -260.159     545.203
  H     -271.472    -259.650     546.829
  P     -272.670    -261.966     549.880
  C     -275.117    -262.634     549.125
  O     -274.092    -262.662     550.140
  O     -272.655    -260.481     549.706
  O     -271.868    -262.293     551.249
  H     -271.948    -261.490     551.805
  H     -275.986    -263.146     549.481
  H     -274.756    -263.116     548.241
  H     -275.369    -261.619     548.900

 6  7  8  9  10  11  12  13  14  15  16  26  31  32  33  34  35 0
 6-311+G(2d,p)
 ****
 36  37 0
 6-311+G(2d,p)
 ****
 1  2  3  4  5  17  18  19  20  21  22  23  24  25 0
 3-21G
 ****
 27  28  29  30  38  39  40  41  42  43  44  45 0
 3-21G
 ****


