%nproc=1
%NoSave
%Mem=1900MB
#P OB98/GEN NMR

erre ene a

0 1
  C       48.607     -78.218    -894.470
  O       47.534     -77.419    -893.990
  P       46.771     -76.485    -895.060
  C       45.279     -78.549    -895.610
  O       45.329     -77.161    -895.280
  C       43.838     -79.034    -895.660
  O       43.214     -78.848    -894.380
  C       42.957     -78.303    -896.660
  O       43.132     -78.777    -897.980
  C       41.571     -78.651    -896.140
  O       41.189     -79.949    -896.610
  C       41.785     -78.672    -894.610
  N       37.955     -75.453    -893.880
  C       38.000     -76.612    -894.630
  N       36.869     -76.986    -895.250
  N       39.085     -77.343    -894.760
  C       40.134     -76.874    -894.050
  C       40.203     -75.731    -893.270
  C       39.016     -74.898    -893.190
  O       38.932     -73.838    -892.590
  N       41.444     -75.592    -892.700
  C       42.108     -76.665    -893.100
  N       41.364     -77.459    -893.940
  O       47.536     -76.813    -896.430
  O       46.781     -75.034    -894.750
  H       41.068     -79.889    -897.570
  H       47.463     -76.058    -897.050
  H       37.090     -74.934    -893.810
  H       43.117     -76.901    -892.790
  H       41.280     -79.514    -894.140
  H       40.795     -77.938    -896.470
  H       35.968     -76.538    -895.090
  H       43.116     -77.208    -896.600
  H       36.868     -77.848    -895.770
  H       43.855     -80.112    -895.880
  H       45.825     -79.118    -894.840
  H       45.778     -78.686    -896.570
  P       43.381     -77.678    -899.130
  C       45.957     -77.974    -899.220
  O       44.724     -78.134    -899.880
  O       43.819     -76.385    -898.290
  O       42.189     -77.405    -900.000
  H       43.599     -75.568    -898.790
  H       45.876     -78.156    -898.150
  H       46.331     -76.962    -899.390
  H       46.671     -78.683    -899.640
  H       49.020     -78.783    -893.661
  H       49.363     -77.586    -894.887
  H       48.245     -78.886    -895.224

 3  4  5  6  7  8  9  10  11  12  23  26  30  31  33  0
 6-311+G(2d,p)
 ****
 35  36  37  38 0
 6-311+G(2d,p)
 ****
 1  2  13  14  15  16  17  18  19  20  21  22  24  25  27  28  29 0
 3-21G
 ****
 32  34  39  40  41  42  43  44  45  46  47  48  49 0
 3-21G
 ****


