%nproc=1
%NoSave
%Mem=1900MB
#P OB98/GEN NMR

erre ene a

0 1
  C       -1.868    -111.854     274.690
  O       -3.231    -112.208     274.624
  H       -1.621    -111.257     273.808
  H       -1.240    -112.749     274.683
  H       -1.665    -111.259     275.584
  P       -3.860    -113.129     275.779
  C       -5.086    -111.147     276.856
  O       -4.088    -112.143     277.032
  C       -5.957    -111.012     278.106
  O       -5.126    -110.618     279.234
  C       -7.076    -109.969     277.970
  O       -8.308    -110.519     278.443
  C       -6.631    -108.845     278.892
  O       -7.715    -108.043     279.355
  C       -5.879    -109.634     279.967
  N       -5.028    -108.778     280.781
  C       -5.680    -107.975     281.722
  O       -6.908    -108.020     281.832
  N       -4.940    -107.102     282.475
  C       -3.662    -107.004     282.274
  N       -2.991    -106.098     283.033
  C       -2.937    -107.812     281.271
  C       -3.674    -108.674     280.570
  O       -3.083    -114.366     276.081
  O       -5.355    -113.430     275.293
  H       -7.348    -107.232     279.772
  H       -5.678    -114.246     275.741
  H       -1.874    -107.687     281.139
  H       -3.230    -109.308     279.812
  H       -6.579    -110.164     280.627
  H       -5.934    -108.190     278.353
  H       -7.215    -109.618     276.948
  H       -6.363    -112.000     278.355
  H       -3.530    -105.559     283.701
  H       -5.702    -111.419     275.989
  H       -2.003    -105.915     282.949
  H       -4.591    -110.192     276.660
  P       -9.629    -110.106     277.629
  C       -9.308    -111.880     275.761
  O       -9.403    -110.501     276.089
  O       -9.577    -108.507     277.631
  O      -10.890    -110.616     278.243
  H      -10.285    -108.153     278.203
  H       -9.159    -111.986     274.707
  H      -10.212    -112.377     276.046
  H       -8.482    -112.315     276.284

 6  7  8  9  10  11  12  13  14  15  16  26  30  31  32  33  35 0
 6-311+G(2d,p)
 ****
 37  38 0
 6-311+G(2d,p)
 ****
 1  2  3  4  5  17  18  19  20  21  22  23  24  25 0
 3-21G
 ****
 27  28  29  34  36  39  40  41  42  43  44  45  46 0
 3-21G
 ****


