%nproc=1
%NoSave
%Mem=1900MB
#P OB98/GEN NMR

erre ene a

0 1
  C     1262.308     147.356     593.513
  O     1262.671     147.174     592.136
  P     1263.984     146.307     591.850
  C     1265.576     148.355     591.759
  O     1265.260     147.126     592.390
  C     1267.082     148.472     591.434
  O     1267.318     149.475     590.433
  C     1267.923     148.873     592.671
  O     1269.197     148.225     592.551
  C     1268.123     150.364     592.484
  O     1269.239     150.852     593.255
  C     1268.264     150.444     590.972
  N     1270.004     155.258     590.841
  C     1270.467     154.126     591.429
  N     1269.938     152.879     591.439
  C     1268.802     152.851     590.696
  C     1268.190     153.909     590.043
  C     1268.846     155.159     590.146
  N     1268.332     156.303     589.555
  N     1267.023     153.503     589.430
  C     1266.940     152.208     589.707
  N     1267.998     151.784     590.452
  O     1264.156     146.387     590.253
  O     1263.929     144.883     592.311
  H     1269.353     151.796     593.005
  H     1263.902     145.524     589.860
  H     1271.414     154.252     591.989
  H     1266.119     151.560     589.420
  H     1269.284     150.157     590.625
  H     1267.218     150.888     592.816
  H     1267.483     148.613     593.639
  H     1267.425     147.529     591.049
  H     1265.290     149.207     592.410
  H     1268.850     157.160     589.689
  H     1267.468     156.269     589.078
  H     1264.964     148.473     590.840
  P     1269.427     146.883     593.401
  C     1271.064     147.894     595.142
  O     1269.783     147.376     594.879
  O     1270.816     146.326     592.866
  O     1268.332     145.880     593.283
  H     1270.856     145.365     593.012
  H     1270.975     148.767     595.804
  H     1271.587     148.214     594.233
  H     1271.668     147.134     595.659
  H     1261.419     147.949     593.572
  H     1263.103     147.853     594.029
  H     1262.131     146.402     593.964

 3  4  5  6  7  8  9  10  11  12  22  25  29  30  31  32 0
 6-311+G(2d,p)
 ****
 33  36  37 0
 6-311+G(2d,p)
 ****
 1  2  13  14  15  16  17  18  19  20  21  23  24  26 0
 3-21G
 ****
 27  28  34  35  38  39  40  41  42  43  44  45  46  47  48 0
 3-21G
 ****


