%nproc=1
%NoSave
%Mem=1900MB
#P OB98/GEN NMR

erre ene a

0 1
  C      588.039    -895.830     944.707
  O      587.175    -896.950     944.836
  P      587.296    -897.900     946.146
  C      586.601    -896.180     947.925
  O      586.247    -897.390     947.229
  C      585.360    -895.300     948.085
  O      584.958    -894.720     946.807
  C      584.152    -896.010     948.614
  O      584.246    -896.300     949.987
  C      583.031    -895.010     948.248
  O      583.002    -893.950     949.226
  C      583.549    -894.430     946.906
  N      582.793    -895.010     945.780
  C      581.562    -894.420     945.499
  O      581.110    -893.520     946.231
  N      580.881    -894.830     944.370
  C      581.326    -895.820     943.684
  N      580.615    -896.200     942.581
  C      582.542    -896.600     944.038
  C      583.232    -896.110     945.078
  O      588.672    -898.120     946.640
  O      586.636    -899.270     945.620
  H      587.246    -900.000     945.841
  H      582.666    -894.370     950.069
  H      582.841    -897.450     943.463
  H      584.155    -896.560     945.401
  H      583.443    -893.340     946.901
  H      582.047    -895.450     948.217
  H      583.964    -896.940     948.042
  H      585.634    -894.450     948.753
  H      579.783    -895.640     942.341
  H      587.355    -895.650     947.345
  H      581.044    -896.730     941.814
  H      587.013    -896.430     948.890
  P      583.992    -897.870     950.407
  C      586.306    -898.590     949.494
  O      585.425    -898.530     950.636
  O      583.453    -898.540     949.071
  O      583.046    -898.020     951.536
  H      582.744    -899.190     949.294
  H      587.332    -898.750     949.862
  H      586.280    -897.650     948.921
  H      586.033    -899.430     948.858
  H      587.825    -895.318     943.792
  H      589.056    -896.163     944.700
  H      587.887    -895.165     945.532

 3  4  5  6  7  8  9  10  11  12  13  24  27  28  29  30  32 0
 6-311+G(2d,p)
 ****
 34  35 0
 6-311+G(2d,p)
 ****
 1  2  14  15  16  17  18  19  20  21  22  23  25  26 0
 3-21G
 ****
 31  33  36  37  38  39  40  41  42  43  44  45  46 0
 3-21G
 ****


