%nproc=1
%NoSave
%Mem=1900MB
#P OB98/GEN NMR

erre ene a

0 1
  C      112.687    -178.608      88.083
  O      113.593    -179.263      87.217
  H      111.799    -178.324      87.513
  H      113.149    -177.704      88.490
  H      112.388    -179.274      88.898
  P      114.891    -179.922      87.894
  C      116.040    -177.578      88.187
  O      115.548    -178.764      88.788
  C      116.937    -176.813      89.162
  O      116.102    -176.218      90.189
  C      117.980    -177.689      89.857
  O      119.170    -176.918      90.037
  C      117.354    -177.969      91.213
  O      118.329    -178.310      92.194
  C      116.597    -176.657      91.470
  N      115.514    -176.820      92.438
  C      115.648    -176.136      93.649
  O      116.645    -175.447      93.868
  N      114.672    -176.277      94.604
  C      113.680    -177.084      94.394
  N      112.759    -177.200      95.387
  C      113.521    -177.861      93.149
  C      114.459    -177.675      92.221
  O      115.883    -180.048      86.645
  O      114.630    -181.206      88.607
  H      117.867    -178.498      93.041
  H      115.904    -179.254      86.085
  H      112.682    -178.529      93.024
  H      114.417    -178.198      91.273
  H      117.281    -175.886      91.847
  H      116.649    -178.806      91.135
  H      118.209    -178.598      89.298
  H      117.412    -175.986      88.621
  H      112.918    -176.666      96.233
  H      115.211    -176.937      87.875
  H      111.978    -177.838      95.356
  H      116.605    -177.862      87.293
  P      120.475    -177.271      89.182
  C      122.269    -178.224      90.784
  O      121.231    -178.514      89.853
  O      121.346    -176.115      88.822
  O      119.854    -177.929      87.851
  H      120.368    -177.601      87.087
  H      122.684    -179.139      91.152
  H      121.868    -177.661      91.601
  H      123.034    -177.654      90.299

 6  7  8  9  10  11  12  13  14  15  16  26  30  31  32  33  35 0
 6-311+G(2d,p)
 ****
 37  38 0
 6-311+G(2d,p)
 ****
 1  2  3  4  5  17  18  19  20  21  22  23  24  25 0
 3-21G
 ****
 27  28  29  34  36  39  40  41  42  43  44  45  46 0
 3-21G
 ****


