%nproc=1
%NoSave
%Mem=1900MB
#P OB98/GEN NMR

erre ene a

0 1
  C      -90.108     -21.059    -382.279
  O      -90.266     -20.521    -383.582
  P      -89.639     -19.093    -383.970
  C      -89.414     -19.720    -386.467
  O      -90.038     -18.870    -385.505
  C      -89.395     -19.031    -387.840
  O      -90.753     -18.758    -388.258
  C      -88.680     -17.680    -387.860
  O      -87.271     -17.860    -387.855
  C      -89.268     -17.064    -389.126
  O      -88.610     -17.601    -390.294
  C      -90.730     -17.564    -389.079
  N      -91.649     -16.549    -388.558
  C      -91.956     -15.499    -389.431
  O      -91.484     -15.442    -390.564
  N      -92.847     -14.538    -389.001
  C      -93.352     -14.600    -387.795
  N      -94.272     -13.663    -387.458
  C      -93.009     -15.672    -386.848
  C      -92.167     -16.602    -387.279
  O      -88.177     -18.944    -383.674
  O      -90.562     -18.032    -383.212
  H      -87.668     -17.376    -390.213
  H      -90.260     -17.823    -382.290
  H      -93.451     -15.682    -385.852
  H      -91.886     -17.428    -386.648
  H      -91.056     -17.874    -390.076
  H      -89.175     -15.978    -389.157
  H      -88.967     -17.082    -386.987
  H      -88.945     -19.719    -388.565
  H      -94.606     -13.051    -388.202
  H      -89.984     -20.644    -386.545
  H      -94.919     -13.795    -386.689
  H      -88.397     -19.954    -386.142
  P      -86.385     -16.758    -387.095
  C      -85.042     -18.400    -385.585
  O      -85.016     -17.507    -386.682
  O      -87.160     -16.550    -385.705
  O      -86.213     -15.475    -387.849
  H      -87.696     -15.732    -385.739
  H      -84.123     -18.988    -385.594
  H      -85.899     -19.073    -385.662
  H      -85.100     -17.833    -384.646
  H      -90.595     -22.010    -382.224
  H      -90.544     -20.394    -381.563
  H      -89.066     -21.179    -382.067

 3  4  5  6  7  8  9  10  11  12  13  23  27  28  29  30  32 0
 6-311+G(2d,p)
 ****
 34  35 0
 6-311+G(2d,p)
 ****
 1  2  14  15  16  17  18  19  20  21  22  24  25  26 0
 3-21G
 ****
 31  33  36  37  38  39  40  41  42  43  44  45  46 0
 3-21G
 ****


