%nproc=1
%NoSave
%Mem=1900MB
#P OB98/GEN NMR

erre ene a

0 1
  C      174.079     -99.989     -63.448
  O      173.100     -99.741     -64.439
  H      175.029     -99.556     -63.775
  H      174.210    -101.067     -63.316
  H      173.788     -99.531     -62.499
  P      171.586    -100.091     -64.050
  C      171.548    -102.057     -65.784
  O      171.333    -101.630     -64.447
  C      170.211    -102.280     -66.485
  O      170.408    -102.590     -67.880
  C      169.422    -103.471     -65.962
  O      168.856    -103.230     -64.690
  C      168.387    -103.629     -67.066
  O      167.267    -102.756     -66.874
  C      169.186    -103.224     -68.328
  N      169.440    -104.363     -69.194
  C      169.311    -104.113     -70.566
  O      169.020    -102.983     -70.963
  N      169.477    -105.152     -71.442
  C      169.721    -106.346     -70.990
  N      169.841    -107.340     -71.912
  C      169.861    -106.651     -69.552
  C      169.711    -105.624     -68.715
  O      170.751     -99.287     -65.152
  O      171.213     -99.766     -62.642
  H      167.608    -101.842     -66.978
  H      171.063     -99.429     -66.059
  H      170.079    -107.658     -69.226
  H      169.799    -105.758     -67.645
  H      168.636    -102.470     -68.907
  H      167.990    -104.646     -67.104
  H      170.054    -104.369     -65.955
  H      169.628    -101.352     -66.412
  H      169.679    -107.094     -72.882
  H      172.145    -102.975     -65.804
  H      169.952    -108.314     -71.673
  H      172.123    -101.278     -66.294
  P      169.554    -103.770     -63.355
  C      168.682    -106.195     -63.446
  O      169.818    -105.343     -63.574
  O      168.845    -103.440     -62.086
  O      171.036    -103.170     -63.450
  H      171.541    -103.446     -64.237
  H      168.977    -107.210     -63.611
  H      167.944    -105.916     -64.168
  H      168.273    -106.098     -62.462

 6  7  8  9  10  11  12  13  14  15  16  26  30  31  32  33  35 0
 6-311+G(2d,p)
 ****
 37  38 0
 6-311+G(2d,p)
 ****
 1  2  3  4  5  17  18  19  20  21  22  23  24  25 0
 3-21G
 ****
 27  28  29  34  36  39  40  41  42  43  44  45  46 0
 3-21G
 ****


