%nproc=1
%NoSave
%Mem=1900MB
#P OB98/GEN NMR

erre ene a

0 1
  C       -0.247     -69.658    -162.812
  O       -0.403     -70.061    -164.177
  P        0.229     -69.073    -165.273
  C        1.478     -70.764    -166.795
  O        1.596     -69.730    -165.821
  C        2.849     -71.223    -167.276
  O        3.505     -70.183    -168.065
  C        3.818     -71.606    -166.160
  O        4.633     -72.685    -166.626
  C        4.671     -70.362    -166.001
  O        5.891     -70.640    -165.334
  C        4.821     -69.968    -167.468
  N        8.821     -66.892    -167.243
  C        8.686     -68.202    -166.862
  N        9.809     -68.809    -166.379
  N        7.569     -68.863    -166.934
  C        6.540     -68.156    -167.462
  C        6.546     -66.846    -167.901
  C        7.797     -66.114    -167.781
  O        7.953     -64.940    -168.104
  N        5.314     -66.486    -168.390
  C        4.568     -67.545    -168.192
  N        5.273     -68.613    -167.684
  O        0.739     -67.832    -164.387
  O       -0.740     -68.638    -166.328
  H        6.322     -71.393    -165.778
  H        0.096     -67.095    -164.451
  H        9.695     -66.402    -167.155
  H        3.524     -67.613    -168.428
  H        5.537     -70.617    -168.001
  H        4.153     -69.575    -165.453
  H       10.703     -68.365    -166.347
  H        3.330     -71.876    -165.202
  H        9.751     -69.786    -166.139
  H        2.710     -72.087    -167.939
  H        0.892     -70.393    -167.645
  H        0.886     -71.588    -166.378
  P        3.977     -74.135    -166.727
  C        3.536     -74.445    -169.265
  O        2.985     -74.131    -167.993
  O        2.975     -74.150    -165.467
  O        4.953     -75.258    -166.668
  H        2.985     -75.050    -165.056
  H        2.753     -74.838    -169.889
  H        4.350     -75.162    -169.197
  H        3.903     -73.511    -169.719
  H       -0.702     -70.384    -162.171
  H       -0.717     -68.708    -162.665
  H        0.795     -69.581    -162.580

 3  4  5  6  7  8  9  10  11  12  23  26  30  31 0
 6-311+G(2d,p)
 ****
 33  35  36  37  38 0
 6-311+G(2d,p)
 ****
 1  2  13  14  15  16  17  18  19  20  21  22  24  25 0
 3-21G
 ****
 27  28  29  32  34  39  40  41  42  43  44  45  46  47  48  49 0
 3-21G
 ****


