%nproc=1
%NoSave
%Mem=1900MB
#P OB98/GEN NMR

erre ene a

0 1
  C     -190.353     785.982    1015.752
  O     -191.068     787.105    1015.268
  H     -191.043     785.144    1015.858
  H     -189.915     786.204    1016.729
  H     -189.568     785.711    1015.047
  P     -190.253     788.481    1015.141
  C     -190.384     788.418    1012.547
  O     -189.553     788.476    1013.701
  C     -190.298     789.740    1011.782
  O     -190.774     790.819    1012.629
  C     -188.876     790.143    1011.394
  O     -188.413     789.456    1010.244
  C     -189.060     791.631    1011.147
  O     -189.532     791.890    1009.815
  C     -190.102     792.021    1012.200
  N     -189.505     792.737    1013.322
  C     -189.736     794.119    1013.353
  O     -190.400     794.704    1012.499
  N     -189.146     794.804    1014.371
  C     -188.319     794.269    1015.321
  O     -187.765     794.952    1016.178
  C     -188.091     792.813    1015.234
  C     -188.677     792.129    1014.248
  O     -189.037     788.282    1016.159
  O     -191.048     789.711    1015.445
  H     -189.186     788.825    1016.958
  H     -189.795     792.826    1009.801
  H     -189.303     795.800    1014.412
  H     -187.441     792.361    1015.971
  H     -188.527     791.064    1014.155
  H     -190.876     792.672    1011.751
  H     -188.115     792.151    1011.256
  H     -188.195     790.003    1012.238
  H     -190.934     789.686    1010.904
  H     -191.416     788.247    1012.838
  H     -190.053     787.580    1011.915
  P     -186.824     789.389    1010.004
  C     -186.493     786.814    1010.516
  O     -186.302     788.165    1010.914
  O     -186.346     790.707    1010.762
  O     -186.455     789.330    1008.561
  H     -186.967     790.950    1011.480
  H     -186.076     786.162    1011.255
  H     -186.007     786.647    1009.578
  H     -187.540     786.616    1010.416

 6  7  8  9  10  11  12  13  14  15  16  27  31  32  33  34  35 0
 6-311+G(2d,p)
 ****
 36  37 0
 6-311+G(2d,p)
 ****
 1  2  3  4  5  17  18  19  20  21  22  23  24  25 0
 3-21G
 ****
 26  28  29  30  38  39  40  41  42  43  44  45 0
 3-21G
 ****


