%nproc=1
%NoSave
%Mem=1900MB
#P OB98/GEN NMR

erre ene a

0 1
  C      263.979     181.947      60.107
  O      263.991     183.356      60.172
  H      263.094     181.578      60.630
  H      264.869     181.541      60.594
  H      263.938     181.613      59.066
  P      265.203     184.115      59.439
  C      263.719     186.128      58.714
  O      264.813     185.675      59.501
  C      263.281     187.524      59.160
  O      262.618     187.428      60.443
  C      264.446     188.507      59.309
  O      264.075     189.770      58.757
  C      264.653     188.614      60.811
  O      265.242     189.857      61.187
  C      263.236     188.367      61.343
  N      263.256     187.855      62.714
  C      263.771     188.705      63.696
  O      264.197     189.823      63.390
  N      263.846     188.256      64.988
  C      263.493     187.039      65.269
  N      263.610     186.644      66.566
  C      262.989     186.091      64.256
  C      262.889     186.564      63.015
  O      264.987     183.734      57.902
  O      266.564     183.793      59.959
  H      265.382     189.846      62.158
  H      265.781     183.958      57.359
  H      262.719     185.084      64.536
  H      262.531     185.937      62.205
  H      262.648     189.293      61.324
  H      265.323     187.811      61.141
  H      265.356     188.162      58.817
  H      262.536     187.900      58.449
  H      263.972     187.320      67.230
  H      262.886     185.428      58.828
  H      263.393     185.714      66.891
  H      264.022     186.158      57.662
  P      264.429     189.991      57.206
  C      262.029     190.881      56.792
  O      263.421     191.106      56.633
  O      263.941     188.635      56.514
  O      265.875     190.271      56.959
  H      264.696     188.035      56.365
  H      261.485     191.698      56.367
  H      261.797     190.802      57.834
  H      261.755     189.973      56.296

 6  7  8  9  10  11  12  13  14  15  16  26  30  31  32  33  35 0
 6-311+G(2d,p)
 ****
 37  38 0
 6-311+G(2d,p)
 ****
 1  2  3  4  5  17  18  19  20  21  22  23  24  25 0
 3-21G
 ****
 27  28  29  34  36  39  40  41  42  43  44  45  46 0
 3-21G
 ****


