%nproc=1
%NoSave
%Mem=1900MB
#P OB98/GEN NMR

erre ene a

0 1
  C       38.107     -93.799     -67.935
  O       38.266     -93.710     -69.337
  H       39.093     -93.906     -67.475
  H       37.503     -94.675     -67.683
  H       37.630     -92.894     -67.547
  P       36.957     -93.376     -70.195
  C       36.679     -90.814     -69.695
  O       36.219     -92.141     -69.478
  C       35.542     -89.950     -70.235
  O       35.050     -90.460     -71.490
  C       34.310     -89.928     -69.345
  O       34.507     -89.196     -68.157
  C       33.296     -89.307     -70.294
  O       33.461     -87.884     -70.368
  C       33.688     -89.973     -71.637
  N       32.772     -91.039     -72.018
  C       31.759     -90.678     -72.916
  O       31.688     -89.525     -73.341
  N       30.838     -91.628     -73.283
  C       30.933     -92.833     -72.818
  N       29.984     -93.723     -73.213
  C       31.999     -93.262     -71.892
  C       32.872     -92.322     -71.534
  O       35.994     -94.607     -69.857
  O       37.190     -93.155     -71.653
  H       34.418     -87.724     -70.487
  H       35.863     -94.750     -68.905
  H       32.044     -94.281     -71.538
  H       33.684     -92.551     -70.857
  H       33.703     -89.231     -72.445
  H       32.269     -89.491     -69.976
  H       33.982     -90.952     -69.128
  H       35.934     -88.939     -70.404
  H       29.256     -93.389     -73.833
  H       37.532     -90.803     -70.381
  H       29.937     -94.678     -72.892
  H       37.025     -90.423     -68.733
  P       33.487     -89.345     -66.929
  C       34.889     -91.325     -66.070
  O       33.592     -90.872     -66.441
  O       32.098     -88.873     -67.196
  O       34.223     -88.560     -65.743
  H       35.098     -88.913     -65.502
  H       34.835     -92.349     -65.765
  H       35.256     -90.730     -65.260
  H       35.551     -91.236     -66.906

 6  7  8  9  10  11  12  13  14  15  16  26  30  31  32  33  35 0
 6-311+G(2d,p)
 ****
 37  38 0
 6-311+G(2d,p)
 ****
 1  2  3  4  5  17  18  19  20  21  22  23  24  25 0
 3-21G
 ****
 27  28  29  34  36  39  40  41  42  43  44  45  46 0
 3-21G
 ****


