%nproc=1
%NoSave
%Mem=1900MB
#P OB98/GEN NMR

erre ene a

0 1
  C       80.436     519.733    -658.214
  O       81.050     521.019    -658.263
  P       80.583     522.018    -659.441
  C       82.778     521.972    -660.822
  O       81.419     521.569    -660.735
  C       83.359     521.602    -662.187
  O       83.079     520.225    -662.474
  C       82.783     522.388    -663.367
  O       83.377     523.668    -663.492
  C       83.149     521.486    -664.526
  O       84.512     521.737    -664.913
  C       83.007     520.079    -663.918
  N       80.617     517.164    -667.299
  C       81.913     517.623    -667.291
  N       82.704     517.239    -668.317
  N       82.411     518.405    -666.360
  C       81.519     518.683    -665.375
  C       80.210     518.289    -665.272
  C       79.662     517.462    -666.332
  O       78.492     517.079    -666.421
  N       79.631     518.757    -664.122
  C       80.601     519.392    -663.510
  N       81.759     519.411    -664.248
  O       81.271     523.401    -659.021
  O       79.113     522.154    -659.609
  H       84.608     522.697    -665.044
  H       80.767     524.150    -659.401
  H       80.305     516.558    -668.025
  H       80.514     519.875    -662.541
  H       83.845     519.434    -664.216
  H       82.524     521.657    -665.414
  H       82.418     516.529    -669.000
  H       81.682     522.459    -663.277
  H       83.674     517.536    -668.299
  H       84.444     521.728    -662.146
  H       83.366     521.477    -660.049
  H       82.829     523.056    -660.667
  P       82.644     524.703    -664.482
  C       84.788     524.849    -665.936
  O       83.406     524.570    -665.889
  O       83.108     526.134    -663.925
  O       81.155     524.570    -664.516
  H       82.441     526.819    -664.151
  H       85.305     524.522    -665.014
  H       84.937     525.926    -666.069
  H       85.238     524.319    -666.780
  H       80.835     519.178    -657.391
  H       80.632     519.209    -659.126
  H       79.379     519.847    -658.088

 3  4  5  6  7  8  9  10  11  12  23  26  30  31  33  0
 6-311+G(2d,p)
 ****
 35  36  37  38 0
 6-311+G(2d,p)
 ****
 1  2  13  14  15  16  17  18  19  20  21  22  24  25  27  28  29 0
 3-21G
 ****
 32  34  39  40  41  42  43  44  45  46  47  48  49 0
 3-21G
 ****


