%nproc=1
%NoSave
%Mem=1900MB
#P OB98/GEN NMR

erre ene a

0 1
  C       28.942     134.960      29.507
  O       28.034     134.118      28.817
  P       26.465     134.369      29.022
  C       24.831     136.336      28.573
  O       26.177     135.929      28.770
  C       24.656     137.818      28.910
  O       24.670     137.993      30.351
  C       25.756     138.713      28.332
  O       25.199     139.990      27.990
  C       26.690     138.926      29.506
  O       27.461     140.117      29.352
  C       25.691     138.962      30.663
  N       27.094     140.897      35.114
  C       26.246     141.421      34.160
  N       25.780     142.667      34.388
  N       25.884     140.777      33.081
  C       26.435     139.543      32.983
  C       27.275     138.909      33.872
  C       27.677     139.637      35.055
  O       28.447     139.242      35.923
  N       27.595     137.647      33.445
  C       26.988     137.527      32.281
  N       26.301     138.664      31.941
  O       26.281     134.204      30.604
  O       25.581     133.426      28.280
  H       27.676     140.433      30.250
  H       25.854     133.350      30.800
  H       27.353     141.437      35.924
  H       27.033     136.658      31.639
  H       25.204     139.941      30.742
  H       27.381     138.081      29.596
  H       26.074     143.240      35.164
  H       26.269     138.295      27.460
  H       25.193     143.091      33.681
  H       23.669     138.142      28.558
  H       24.181     135.744      29.218
  H       24.541     136.150      27.533
  P       25.998     140.831      26.878
  C       26.759     140.311      24.445
  O       26.267     139.814      25.672
  O       27.442     141.033      27.537
  O       25.353     142.125      26.510
  H       27.870     141.829      27.172
  H       27.746     139.880      24.259
  H       26.841     141.402      24.441
  H       26.082     140.007      23.642
  H       29.945     134.672      29.271
  H       28.783     134.868      30.561
  H       28.783     135.975      29.209

 3  4  5  6  7  8  9  10  11  12  23  26  30  31 0
 6-311+G(2d,p)
 ****
 33  35  36  37  38 0
 6-311+G(2d,p)
 ****
 1  2  13  14  15  16  17  18  19  20  21  22  24  25 0
 3-21G
 ****
 27  28  29  32  34  39  40  41  42  43  44  45  46  47  48  49 0
 3-21G
 ****


