%nproc=1
%NoSave
%Mem=1900MB
#P OB98/GEN NMR

erre ene a

0 1
  C      414.890      15.387     102.153
  O      415.053      14.477     103.245
  P      414.070      13.210     103.328
  C      413.995      12.318     100.884
  O      414.496      12.154     102.203
  C      414.531      11.218      99.959
  O      415.972      11.179      99.939
  C      414.095       9.811     100.367
  O      412.787       9.521      99.902
  C      415.122       8.963      99.633
  O      414.739       8.832      98.246
  C      416.393       9.808      99.758
  N      421.006       8.007     101.079
  C      420.440       8.256      99.875
  N      419.211       8.717      99.601
  C      418.525       8.945     100.736
  C      418.964       8.740     102.043
  C      420.273       8.248     102.192
  N      420.842       8.008     103.427
  N      417.987       9.077     102.950
  C      416.974       9.492     102.206
  N      417.246       9.424     100.868
  O      412.685      13.798     102.778
  O      413.921      12.657     104.708
  H      414.834       9.713      97.839
  H      411.938      13.372     103.242
  H      421.076       8.053      99.006
  H      416.026       9.856     102.598
  H      417.011       9.772      98.846
  H      415.199       7.950     100.038
  H      414.194       9.669     101.456
  H      414.177      11.430      98.939
  H      414.272      13.298     100.497
  H      421.794       7.677     103.448
  H      420.305       8.208     104.257
  H      412.895      12.304     100.917
  P      411.585       9.619     100.973
  C      410.717      11.966     101.693
  O      410.841      11.011     100.659
  O      412.359       9.894     102.350
  O      410.717       8.414     101.039
  H      411.843       9.519     103.099
  H      410.481      12.935     101.251
  H      411.650      12.058     102.261
  H      409.903      11.676     102.369
  H      415.611      16.173     102.233
  H      413.904      15.803     102.179
  H      415.033      14.865     101.230

 3  4  5  6  7  8  9  10  11  12  22  25  29  30  31  32 0
 6-311+G(2d,p)
 ****
 33  36  37 0
 6-311+G(2d,p)
 ****
 1  2  13  14  15  16  17  18  19  20  21  23  24  26 0
 3-21G
 ****
 27  28  34  35  38  39  40  41  42  43  44  45  46  47  48 0
 3-21G
 ****


