%nproc=1
%NoSave
%Mem=1900MB
#P OB98/GEN NMR

erre ene a

0 1
  C      197.606     127.718      16.249
  O      198.306     128.942      16.127
  P      199.814     128.950      15.591
  C      199.893     131.118      14.212
  O      200.268     130.478      15.429
  C      199.649     132.606      14.451
  O      198.442     132.802      15.218
  C      200.753     133.297      15.240
  O      201.882     133.540      14.422
  C      200.033     134.552      15.719
  O      200.014     135.551      14.686
  C      198.613     134.022      15.977
  N      196.117     135.684      20.104
  C      196.310     136.233      18.887
  N      197.023     135.744      17.848
  C      197.589     134.572      18.180
  C      197.512     133.904      19.392
  C      196.711     134.500      20.384
  N      196.457     133.918      21.607
  N      198.258     132.743      19.352
  C      198.782     132.715      18.143
  N      198.352     133.764      17.379
  O      200.076     128.081      14.404
  O      200.666     128.453      16.852
  H      200.938     135.698      14.409
  H      201.136     127.628      16.621
  H      195.818     137.187      18.718
  H      199.455     131.954      17.771
  H      197.846     134.722      15.626
  H      200.506     135.000      16.597
  H      201.029     132.688      16.109
  H      199.509     133.090      13.474
  H      198.975     130.646      13.844
  H      195.757     134.359      22.181
  H      196.635     132.922      21.713
  H      200.685     130.976      13.469
  P      203.228     132.709      14.658
  C      203.372     131.788      12.267
  O      203.977     132.617      13.243
  O      203.071     131.410      15.380
  O      204.157     133.721      15.482
  H      204.732     133.215      16.086
  H      203.598     130.741      12.485
  H      203.783     132.042      11.287
  H      202.289     131.936      12.246
  H      196.620     127.906      16.620
  H      198.126     127.076      16.929
  H      197.543     127.246      15.291

 3  4  5  6  7  8  9  10  11  12  22  25  29  30  31  32 0
 6-311+G(2d,p)
 ****
 33  36  37 0
 6-311+G(2d,p)
 ****
 1  2  13  14  15  16  17  18  19  20  21  23  24  26 0
 3-21G
 ****
 27  28  34  35  38  39  40  41  42  43  44  45  46  47  48 0
 3-21G
 ****


