%nproc=1
%NoSave
%Mem=1900MB
#P OB98/GEN NMR

erre ene a

0 1
  C      215.134    -114.461     -25.478
  O      213.863    -114.226     -24.907
  H      215.820    -114.770     -24.686
  H      215.523    -113.551     -25.942
  H      215.075    -115.262     -26.219
  P      212.700    -113.646     -25.850
  C      213.641    -111.292     -25.312
  O      212.499    -112.133     -25.341
  C      213.218    -109.830     -25.202
  O      214.366    -108.967     -25.067
  C      212.466    -109.288     -26.413
  O      211.128    -109.752     -26.501
  C      212.546    -107.796     -26.127
  O      211.605    -107.452     -25.095
  C      214.002    -107.668     -25.613
  N      214.943    -107.272     -26.659
  C      214.852    -105.952     -27.118
  O      214.014    -105.183     -26.648
  N      215.690    -105.542     -28.126
  C      216.531    -106.380     -28.646
  N      217.304    -105.937     -29.675
  C      216.672    -107.774     -28.183
  C      215.854    -108.152     -27.203
  O      211.451    -114.463     -25.938
  O      213.412    -113.417     -27.264
  H      210.718    -107.675     -25.432
  H      212.729    -113.068     -27.888
  H      217.384    -108.435     -28.655
  H      215.886    -109.166     -26.820
  H      214.062    -106.945     -24.792
  H      212.316    -107.176     -26.998
  H      213.013    -109.496     -27.338
  H      212.628    -109.725     -24.282
  H      217.150    -104.990     -29.994
  H      214.216    -111.467     -26.227
  H      217.768    -106.585     -30.303
  H      214.266    -111.536     -24.448
  P      210.636    -110.359     -27.904
  C      212.080    -108.832     -29.443
  O      210.785    -109.188     -28.991
  O      209.056    -110.488     -27.700
  O      211.271    -111.652     -28.309
  H      208.812    -111.383     -27.392
  H      212.003    -108.041     -30.160
  H      212.545    -109.682     -29.898
  H      212.670    -108.504     -28.613

 6  7  8  9  10  11  12  13  14  15  16  26  30  31  32  33  35 0
 6-311+G(2d,p)
 ****
 37  38 0
 6-311+G(2d,p)
 ****
 1  2  3  4  5  17  18  19  20  21  22  23  24  25 0
 3-21G
 ****
 27  28  29  34  36  39  40  41  42  43  44  45  46 0
 3-21G
 ****


