%nproc=1
%NoSave
%Mem=1900MB
#P OB98/GEN NMR

erre ene a

0 1
  C      -74.905    -124.507    -248.958
  O      -74.931    -125.771    -248.329
  H      -75.619    -123.848    -248.453
  H      -75.201    -124.607    -250.006
  H      -73.909    -124.062    -248.892
  P      -73.806    -126.824    -248.785
  C      -73.354    -128.038    -251.037
  O      -74.320    -127.471    -250.161
  C      -74.041    -128.865    -252.118
  O      -74.490    -130.130    -251.573
  C      -75.271    -128.204    -252.727
  O      -74.919    -127.275    -253.746
  C      -75.981    -129.414    -253.311
  O      -75.334    -129.814    -254.537
  C      -75.752    -130.470    -252.220
  N      -80.048    -132.769    -250.823
  C      -79.252    -132.977    -251.936
  N      -79.662    -133.924    -252.804
  N      -78.152    -132.309    -252.176
  C      -77.869    -131.386    -251.227
  C      -78.577    -131.090    -250.082
  C      -79.787    -131.839    -249.825
  O      -80.517    -131.715    -248.843
  N      -77.971    -130.099    -249.358
  C      -76.909    -129.777    -250.071
  N      -76.805    -130.524    -251.219
  O      -73.974    -128.024    -247.732
  O      -72.408    -126.306    -248.798
  H      -75.761    -130.642    -254.822
  H      -73.091    -128.397    -247.538
  H      -80.891    -133.303    -250.690
  H      -76.188    -129.019    -249.803
  H      -75.646    -131.479    -252.634
  H      -77.026    -129.215    -253.551
  H      -80.526    -134.437    -252.702
  H      -75.906    -127.744    -251.959
  H      -79.080    -134.116    -253.610
  H      -73.296    -129.091    -252.894
  H      -72.681    -128.685    -250.458
  H      -72.768    -127.233    -251.493
  P      -75.951    -126.078    -254.047
  C      -78.148    -125.925    -255.433
  O      -76.933    -126.632    -255.189
  O      -75.045    -125.011    -254.826
  O      -76.608    -125.490    -252.845
  H      -75.434    -124.119    -254.743
  H      -78.692    -126.411    -256.216
  H      -77.924    -124.920    -255.725
  H      -78.739    -125.914    -254.541

 6  7  8  9  10  11  12  13  14  15  26  29  33  34 0
 6-311+G(2d,p)
 ****
 36  38  39  40  41 0
 6-311+G(2d,p)
 ****
 1  2  3  4  5  16  17  18  19  20  21  22  23  24  25 0
 3-21G
 ****
 27  28  30  31  32  35  37  42  43  44  45  46  47 0
 3-21G
 ****
 48  49 0
 3-21G
 ****


