%nproc=1
%NoSave
%Mem=1900MB
#P OB98/GEN NMR

erre ene a

0 1
  C      -10.073      54.376     -39.616
  O       -9.037      53.431     -39.448
  H      -10.684      54.395     -38.709
  H      -10.708      54.098     -40.462
  H       -9.653      55.371     -39.781
  P       -8.089      53.180     -40.721
  C       -6.205      54.694     -41.705
  O       -7.423      54.619     -40.980
  C       -6.189      55.959     -42.556
  O       -7.267      55.941     -43.516
  C       -6.376      57.246     -41.760
  O       -5.192      57.666     -41.101
  C       -6.772      58.199     -42.872
  O       -5.605      58.565     -43.632
  C       -7.721      57.308     -43.706
  N       -9.125      57.442     -43.316
  C       -9.926      58.256     -44.126
  O       -9.450      58.829     -45.105
  N      -11.247      58.430     -43.788
  C      -11.730      57.837     -42.741
  N      -13.040      58.056     -42.446
  C      -10.927      56.959     -41.872
  C       -9.649      56.809     -42.212
  O       -9.119      53.050     -41.939
  O       -7.123      52.050     -40.607
  H       -5.265      57.748     -44.039
  H       -8.625      53.018     -42.793
  H      -11.371      56.495     -41.003
  H       -8.997      56.179     -41.617
  H       -7.632      57.535     -44.775
  H       -7.220      59.124     -42.505
  H       -7.209      57.167     -41.054
  H       -5.248      55.974     -43.122
  H      -13.548      58.711     -43.024
  H       -6.129      53.808     -42.344
  H      -13.451      57.786     -41.561
  H       -5.357      54.710     -41.014
  P       -5.319      58.850     -40.025
  C       -6.044      58.939     -37.533
  O       -6.145      58.266     -38.779
  O       -6.356      59.853     -40.713
  O       -4.030      59.527     -39.676
  H       -6.107      60.783     -40.552
  H       -6.646      58.435     -36.806
  H       -6.386      59.947     -37.643
  H       -5.024      58.942     -37.211

 6  7  8  9  10  11  12  13  14  15  16  26  30  31  32  33  35 0
 6-311+G(2d,p)
 ****
 37  38 0
 6-311+G(2d,p)
 ****
 1  2  3  4  5  17  18  19  20  21  22  23  24  25 0
 3-21G
 ****
 27  28  29  34  36  39  40  41  42  43  44  45  46 0
 3-21G
 ****


