%nproc=1
%NoSave
%Mem=1900MB
#P OB98/GEN NMR

erre ene a

0 1
  C     -157.898     -16.683     206.979
  O     -157.022     -17.354     206.087
  P     -156.609     -16.620     204.725
  C     -156.849     -18.787     203.307
  O     -156.004     -17.732     203.738
  C     -156.052     -19.809     202.493
  O     -155.515     -19.163     201.298
  C     -154.868     -20.426     203.251
  O     -154.723     -21.783     202.799
  C     -153.696     -19.600     202.756
  O     -152.440     -20.232     202.955
  C     -154.095     -19.415     201.287
  N     -153.360     -18.339     200.628
  C     -152.358     -18.703     199.732
  O     -152.057     -19.867     199.469
  N     -151.649     -17.668     199.181
  C     -151.776     -16.349     199.496
  O     -151.028     -15.481     199.050
  C     -152.849     -16.021     200.447
  C     -153.580     -17.014     200.962
  O     -155.333     -15.755     205.149
  O     -157.682     -15.777     204.121
  H     -152.120     -19.976     203.838
  H     -155.586     -14.822     205.295
  H     -150.929     -17.914     198.520
  H     -152.990     -14.979     200.704
  H     -154.361     -16.804     201.680
  H     -153.941     -20.352     200.736
  H     -153.676     -18.641     203.287
  H     -154.979     -20.397     204.339
  H     -156.738     -20.598     202.151
  H     -157.646     -18.377     202.687
  H     -157.315     -19.266     204.177
  P     -155.294     -22.952     203.745
  C     -152.849     -23.603     204.420
  O     -154.106     -24.015     203.924
  O     -156.311     -23.677     202.739
  O     -155.940     -22.455     204.994
  H     -155.940     -23.788     201.845
  H     -152.950     -22.800     205.156
  H     -152.230     -23.252     203.590
  H     -152.358     -24.456     204.894
  H     -158.076     -17.300     207.835
  H     -158.826     -16.483     206.485
  H     -157.453     -15.761     207.290

 3  4  5  6  7  8  9  10  11  12  13  23  28  29  30  31  32 0
 6-311+G(2d,p)
 ****
 33  34 0
 6-311+G(2d,p)
 ****
 1  2  14  15  16  17  18  19  20  21  22  24  25  26 0
 3-21G
 ****
 27  35  36  37  38  39  40  41  42  43  44  45 0
 3-21G
 ****


