%nproc=1
%NoSave
%Mem=1900MB
#P OB98/GEN NMR

erre ene a

0 1
  C     -165.126     -75.602     -67.724
  O     -166.497     -75.644     -68.064
  H     -164.607     -76.401     -68.261
  H     -165.006     -75.763     -66.650
  H     -164.686     -74.642     -68.009
  P     -167.406     -74.426     -67.545
  C     -167.767     -73.317     -65.226
  O     -167.355     -74.472     -65.941
  C     -168.376     -73.716     -63.886
  O     -169.675     -74.317     -64.081
  C     -167.552     -74.730     -63.100
  O     -166.502     -74.109     -62.372
  C     -168.613     -75.288     -62.165
  O     -168.858     -74.352     -61.095
  C     -169.834     -75.371     -63.090
  N     -171.345     -80.187     -62.617
  C     -171.336     -79.164     -61.687
  N     -171.783     -79.470     -60.451
  N     -170.920     -77.950     -61.943
  C     -170.489     -77.791     -63.217
  C     -170.452     -78.726     -64.229
  C     -170.922     -80.061     -63.935
  O     -170.975     -80.996     -64.728
  N     -169.961     -78.189     -65.389
  C     -169.682     -76.939     -65.077
  N     -169.977     -76.648     -63.767
  O     -168.898     -74.908     -67.879
  O     -167.114     -73.101     -68.161
  H     -168.068     -74.363     -60.525
  H     -169.429     -74.130     -68.139
  H     -171.666     -81.105     -62.365
  H     -169.269     -76.208     -65.757
  H     -170.774     -75.182     -62.558
  H     -168.315     -76.230     -61.704
  H     -172.071     -80.397     -60.174
  H     -167.178     -75.533     -63.747
  H     -171.817     -78.729     -59.762
  H     -168.525     -72.800     -63.297
  H     -168.516     -72.776     -65.816
  H     -166.901     -72.666     -65.069
  P     -165.049     -74.793     -62.431
  C     -163.985     -76.848     -61.250
  O     -165.046     -75.900     -61.269
  O     -164.088     -73.650     -61.854
  O     -164.624     -75.256     -63.782
  H     -163.175     -73.790     -62.169
  H     -164.118     -77.516     -60.425
  H     -163.051     -76.336     -61.148
  H     -163.988     -77.405     -62.164

 6  7  8  9  10  11  12  13  14  15  26  29  33  34 0
 6-311+G(2d,p)
 ****
 36  38  39  40  41 0
 6-311+G(2d,p)
 ****
 1  2  3  4  5  16  17  18  19  20  21  22  23  24  25 0
 3-21G
 ****
 27  28  30  31  32  35  37  42  43  44  45  46  47 0
 3-21G
 ****
 48  49 0
 3-21G
 ****


