%nproc=1
%NoSave
%Mem=1900MB
#P OB98/GEN NMR

erre ene a

0 1
  C     -265.295      51.173      65.573
  O     -266.028      52.198      66.214
  H     -264.398      50.967      66.160
  H     -264.995      51.483      64.568
  H     -265.892      50.259      65.518
  P     -267.338      52.767      65.488
  C     -268.873      50.808      66.194
  O     -268.248      51.499      65.122
  C     -270.393      51.008      66.160
  O     -270.913      50.463      64.914
  C     -271.137      50.306      67.310
  O     -272.311      51.077      67.593
  C     -271.507      48.985      66.665
  O     -272.478      48.299      67.412
  C     -271.895      49.464      65.260
  N     -271.938      48.379      64.292
  C     -273.199      48.053      63.787
  O     -274.199      48.660      64.171
  N     -273.300      47.027      62.882
  C     -272.247      46.342      62.566
  N     -272.418      45.327      61.672
  C     -270.906      46.617      63.121
  C     -270.824      47.642      63.967
  O     -267.097      53.713      64.358
  O     -268.159      53.471      66.671
  H     -273.312      48.816      67.465
  H     -268.075      54.441      66.596
  H     -270.062      46.005      62.837
  H     -269.882      47.922      64.430
  H     -272.878      49.958      65.275
  H     -270.632      48.327      66.607
  H     -270.527      50.200      68.211
  H     -270.606      52.084      66.150
  H     -273.356      45.168      61.325
  H     -268.463      51.208      67.126
  H     -271.677      44.715      61.368
  H     -268.643      49.739      66.140
  P     -272.416      52.075      68.844
  C     -272.655      54.246      67.468
  O     -271.875      53.520      68.417
  O     -271.804      51.544      70.099
  O     -273.990      52.316      69.052
  H     -274.168      52.473      70.000
  H     -272.188      55.188      67.269
  H     -273.636      54.410      67.863
  H     -272.726      53.684      66.560

 6  7  8  9  10  11  12  13  14  15  16  26  30  31  32  33  35 0
 6-311+G(2d,p)
 ****
 37  38 0
 6-311+G(2d,p)
 ****
 1  2  3  4  5  17  18  19  20  21  22  23  24  25 0
 3-21G
 ****
 27  28  29  34  36  39  40  41  42  43  44  45  46 0
 3-21G
 ****


