%nproc=1
%NoSave
%Mem=1900MB
#P OB98/GEN NMR

erre ene a

0 1
  C       29.888      88.153     -48.699
  O       29.326      87.218     -49.623
  P       27.759      86.912     -49.457
  C       27.954      84.529     -48.450
  O       27.553      85.324     -49.555
  C       28.266      83.099     -48.897
  O       29.590      82.973     -49.448
  C       28.186      82.083     -47.766
  O       26.834      81.742     -47.514
  C       29.000      80.926     -48.330
  O       28.199      80.091     -49.191
  C       30.089      81.645     -49.145
  N       34.804      79.799     -48.941
  C       33.705      79.343     -49.643
  N       33.895      78.257     -50.421
  N       32.525      79.905     -49.589
  C       32.481      80.984     -48.772
  C       33.507      81.546     -48.049
  C       34.806      80.912     -48.115
  O       35.815      81.290     -47.530
  N       33.094      82.674     -47.385
  C       31.793      82.716     -47.609
  N       31.383      81.751     -48.496
  O       27.128      87.471     -50.817
  O       27.151      87.563     -48.260
  H       27.767      80.649     -49.863
  H       26.601      88.270     -50.632
  H       35.686      79.321     -49.013
  H       31.114      83.434     -47.177
  H       30.269      81.143     -50.103
  H       29.384      80.275     -47.541
  H       34.777      77.776     -50.512
  H       28.671      82.480     -46.866
  H       33.104      77.912     -50.950
  H       27.546      82.836     -49.683
  H       27.168      84.515     -47.693
  H       28.831      84.992     -47.983
  P       26.381      81.556     -45.988
  C       25.972      78.997     -46.116
  O       25.415      80.282     -45.925
  O       25.398      82.798     -45.748
  O       27.502      81.561     -45.004
  H       25.595      83.208     -44.885
  H       25.380      78.270     -45.555
  H       27.009      78.950     -45.772
  H       25.933      78.742     -47.178
  H       30.931      88.276     -48.906
  H       29.763      87.788     -47.701
  H       29.391      89.095     -48.799

 3  4  5  6  7  8  9  10  11  12  23  26  30  31 0
 6-311+G(2d,p)
 ****
 33  35  36  37  38 0
 6-311+G(2d,p)
 ****
 1  2  13  14  15  16  17  18  19  20  21  22  24  25 0
 3-21G
 ****
 27  28  29  32  34  39  40  41  42  43  44  45  46  47  48  49 0
 3-21G
 ****


