%nproc=1
%NoSave
%Mem=1900MB
#P OB98/GEN NMR

erre ene a

0 1
  C     -121.204      61.265     117.494
  O     -120.770      61.451     116.158
  P     -120.826      62.925     115.534
  C     -122.696      64.364     114.443
  O     -122.369      63.314     115.339
  C     -123.955      65.095     114.915
  O     -123.701      65.700     116.218
  C     -124.416      66.217     113.971
  O     -125.850      66.264     114.027
  C     -123.841      67.456     114.631
  O     -124.479      68.656     114.219
  C     -124.045      67.097     116.105
  N     -123.244      67.925     117.007
  C     -123.831      69.088     117.496
  O     -124.970      69.457     117.212
  N     -123.033      69.870     118.288
  C     -121.713      69.655     118.561
  O     -121.024      70.456     119.183
  C     -121.148      68.410     118.018
  C     -121.925      67.615     117.281
  O     -120.295      62.711     114.040
  O     -120.021      63.944     116.271
  H     -125.432      68.556     114.395
  H     -119.359      62.975     113.970
  H     -123.445      70.710     118.660
  H     -120.109      68.197     118.234
  H     -121.530      66.701     116.851
  H     -125.106      67.188     116.374
  H     -122.776      67.540     114.382
  H     -124.079      66.088     112.938
  H     -124.756      64.358     115.051
  H     -122.874      63.948     113.450
  H     -121.851      65.060     114.369
  P     -126.654      66.344     112.638
  C     -126.249      67.779     110.490
  O     -126.158      67.672     111.896
  O     -128.120      66.720     113.163
  O     -126.609      65.079     111.844
  H     -128.106      67.399     113.858
  H     -127.131      67.261     110.104
  H     -125.353      67.351     110.036
  H     -126.314      68.834     110.218
  H     -121.105      60.234     117.761
  H     -122.229      61.559     117.580
  H     -120.605      61.862     118.150

 3  4  5  6  7  8  9  10  11  12  13  23  28  29  30  31  32 0
 6-311+G(2d,p)
 ****
 33  34 0
 6-311+G(2d,p)
 ****
 1  2  14  15  16  17  18  19  20  21  22  24  25  26 0
 3-21G
 ****
 27  35  36  37  38  39  40  41  42  43  44  45 0
 3-21G
 ****


