%nproc=1
%NoSave
%Mem=1900MB
#P OB98/GEN NMR

erre ene a

0 1
  C      334.506      -2.746    -321.193
  O      334.949      -1.502    -320.656
  P      333.986      -0.367    -320.080
  C      334.205       1.464    -321.942
  O      333.409       0.472    -321.308
  C      333.507       2.128    -323.143
  O      333.327       1.147    -324.198
  C      332.107       2.608    -322.755
  O      331.937       3.856    -322.114
  C      331.274       2.440    -324.018
  O      331.214       3.634    -324.794
  C      332.023       1.343    -324.786
  N      328.182      -1.353    -326.826
  C      328.527      -0.033    -327.034
  N      327.723       0.681    -327.851
  N      329.563       0.541    -326.476
  C      330.229      -0.259    -325.613
  C      329.969      -1.575    -325.309
  C      328.857      -2.220    -325.976
  O      328.513      -3.390    -325.837
  N      330.845      -2.057    -324.372
  C      331.619      -1.028    -324.091
  N      331.288       0.089    -324.825
  O      334.525       0.408    -318.924
  O      332.706      -1.202    -319.551
  H      330.686       3.450    -325.590
  H      332.360      -0.717    -318.778
  H      327.390      -1.751    -327.299
  H      332.431      -1.037    -323.372
  H      332.188       1.638    -325.827
  H      330.240       2.177    -323.766
  H      326.851       0.333    -328.214
  H      331.705       1.871    -322.039
  H      327.850       1.693    -327.835
  H      334.130       2.918    -323.571
  H      335.128       0.971    -322.261
  H      334.495       2.226    -321.218
  P      331.421       4.093    -320.614
  C      329.130       5.132    -321.105
  O      329.825       3.995    -320.621
  O      331.675       5.652    -320.360
  O      332.103       3.263    -319.574
  H      331.644       5.851    -319.404
  H      328.092       5.082    -320.782
  H      329.166       5.144    -322.199
  H      329.577       6.056    -320.723
  H      335.352      -3.320    -321.507
  H      333.867      -2.565    -322.032
  H      333.967      -3.286    -320.443

 3  4  5  6  7  8  9  10  11  12  23  26  30  31 0
 6-311+G(2d,p)
 ****
 33  35  36  37  38 0
 6-311+G(2d,p)
 ****
 1  2  13  14  15  16  17  18  19  20  21  22  24  25 0
 3-21G
 ****
 27  28  29  32  34  39  40  41  42  43  44  45  46  47  48  49 0
 3-21G
 ****


