%nproc=1
%NoSave
%Mem=1900MB
#P OB98/GEN NMR

erre ene a

0 1
  C       22.072       3.726      -9.618
  O       23.181       4.562      -9.339
  P       24.299       4.751     -10.468
  C       25.761       2.854      -9.458
  O       25.096       3.365     -10.601
  C       27.081       2.191      -9.860
  O       27.728       1.643      -8.672
  C       26.921       1.040     -10.864
  O       28.077       1.043     -11.713
  C       26.951      -0.183      -9.967
  O       27.263      -1.380     -10.664
  C       28.006       0.257      -8.947
  N       27.990      -0.550      -7.728
  C       28.695      -1.748      -7.746
  O       29.324      -2.163      -8.718
  N       28.608      -2.508      -6.610
  C       27.833      -2.239      -5.520
  O       27.708      -3.017      -4.583
  C       27.110      -0.958      -5.558
  C       27.219      -0.185      -6.641
  O       25.357       5.732      -9.777
  O       23.793       5.298     -11.761
  H       27.343      -2.091     -10.002
  H       25.228       6.647     -10.089
  H       29.123      -3.374      -6.600
  H       26.501      -0.703      -4.700
  H       26.680       0.754      -6.704
  H       29.006       0.214      -9.398
  H       25.970      -0.314      -9.496
  H       26.008       1.104     -11.463
  H       27.748       2.961     -10.266
  H       25.123       2.115      -8.972
  H       25.939       3.665      -8.743
  P       27.855       0.809     -13.286
  C       28.981      -1.549     -13.245
  O       27.833      -0.774     -13.518
  O       29.280       1.264     -13.860
  O       26.708       1.582     -13.852
  H       30.021       0.928     -13.329
  H       29.542      -1.151     -12.395
  H       29.626      -1.564     -14.126
  H       28.673      -2.572     -13.015
  H       21.420       3.704      -8.770
  H       22.416       2.735      -9.829
  H       21.542       4.108     -10.466

 3  4  5  6  7  8  9  10  11  12  13  23  28  29  30  31  32 0
 6-311+G(2d,p)
 ****
 33  34 0
 6-311+G(2d,p)
 ****
 1  2  14  15  16  17  18  19  20  21  22  24  25  26 0
 3-21G
 ****
 27  35  36  37  38  39  40  41  42  43  44  45 0
 3-21G
 ****


