%nproc=1
%NoSave
%Mem=1900MB
#P OB98/GEN NMR

erre ene a

0 1
  C     -115.919    -130.396     -32.251
  O     -114.828    -131.290     -32.149
  P     -113.868    -131.299     -30.864
  C     -111.914    -130.420     -32.286
  O     -112.739    -130.192     -31.154
  C     -110.718    -129.464     -32.303
  O     -111.180    -128.111     -32.572
  C     -109.909    -129.426     -30.997
  O     -108.546    -129.202     -31.373
  C     -110.475    -128.205     -30.296
  O     -109.614    -127.703     -29.285
  C     -110.710    -127.271     -31.492
  N     -111.652    -126.202     -31.175
  C     -111.105    -124.990     -30.745
  O     -109.890    -124.882     -30.574
  N     -111.951    -123.944     -30.467
  C     -113.233    -124.130     -30.511
  N     -114.021    -123.057     -30.228
  C     -113.853    -125.428     -30.836
  C     -113.013    -126.408     -31.170
  O     -113.346    -132.640     -30.473
  O     -114.752    -130.600     -29.726
  H     -109.526    -128.387     -28.585
  H     -115.424    -131.237     -29.374
  H     -114.925    -125.551     -30.806
  H     -113.372    -127.395     -31.424
  H     -109.766    -126.816     -31.820
  H     -111.431    -128.461     -29.823
  H     -110.002    -130.335     -30.398
  H     -110.066    -129.755     -33.136
  H     -113.557    -122.179     -30.024
  H     -112.512    -130.248     -33.184
  H     -115.028    -123.069     -30.315
  H     -111.578    -131.461     -32.301
  P     -107.340    -129.930     -30.607
  C     -107.267    -128.197     -28.721
  O     -107.479    -129.558     -29.055
  O     -105.984    -129.691     -31.191
  O     -107.727    -131.485     -30.647
  H     -106.938    -132.022     -30.431
  H     -107.657    -128.012     -27.715
  H     -107.780    -127.536     -29.428
  H     -106.195    -127.981     -28.733
  H     -116.425    -130.555     -33.180
  H     -115.560    -129.389     -32.208
  H     -116.597    -130.567     -31.442

 3  4  5  6  7  8  9  10  11  12  13  23  27  28  29  30  32 0
 6-311+G(2d,p)
 ****
 34  35 0
 6-311+G(2d,p)
 ****
 1  2  14  15  16  17  18  19  20  21  22  24  25  26 0
 3-21G
 ****
 31  33  36  37  38  39  40  41  42  43  44  45  46 0
 3-21G
 ****


