%nproc=1
%NoSave
%Mem=1900MB
#P OB98/GEN NMR

erre ene a

0 1
  C      283.278      -8.577      -7.874
  O      283.424      -7.393      -7.118
  H      282.300      -8.563      -8.365
  H      283.331      -9.450      -7.220
  H      284.057      -8.636      -8.639
  P      284.798      -7.215      -6.309
  C      285.826      -8.307      -4.193
  O      284.669      -8.141      -4.999
  C      285.501      -9.153      -2.962
  O      284.411      -8.524      -2.232
  C      285.069     -10.589      -3.292
  O      285.602     -11.472      -2.300
  C      283.558     -10.536      -3.143
  O      282.997     -11.818      -2.888
  C      283.422      -9.544      -1.991
  N      278.748     -10.432      -0.353
  C      279.899     -11.188      -0.235
  N      279.791     -12.367       0.414
  N      281.057     -10.823      -0.717
  C      281.027      -9.610      -1.322
  C      279.955      -8.771      -1.512
  C      278.673      -9.198      -0.993
  O      277.616      -8.583      -1.086
  N      280.327      -7.646      -2.204
  C      281.620      -7.804      -2.431
  N      282.088      -8.979      -1.910
  O      284.695      -5.730      -5.721
  O      286.044      -7.422      -7.103
  H      282.117     -11.684      -2.476
  H      285.581      -5.330      -5.629
  H      277.880     -10.766       0.028
  H      282.254      -7.107      -2.962
  H      283.634     -10.006      -1.017
  H      283.103     -10.136      -4.057
  H      278.938     -12.699       0.840
  H      285.379     -10.921      -4.285
  H      280.624     -12.933       0.524
  H      286.370      -9.148      -2.293
  H      286.182      -7.321      -3.872
  H      286.607      -8.796      -4.781
  P      287.013     -12.168      -2.608
  C      287.868     -14.611      -2.801
  O      286.763     -13.726      -2.910
  O      287.729     -12.178      -1.175
  O      287.839     -11.442      -3.619
  H      288.452     -11.524      -1.163
  H      287.551     -15.607      -3.029
  H      288.253     -14.579      -1.803
  H      288.632     -14.314      -3.488

 6  7  8  9  10  11  12  13  14  15  26  29  33  34 0
 6-311+G(2d,p)
 ****
 36  38  39  40  41 0
 6-311+G(2d,p)
 ****
 1  2  3  4  5  16  17  18  19  20  21  22  23  24  25 0
 3-21G
 ****
 27  28  30  31  32  35  37  42  43  44  45  46  47 0
 3-21G
 ****
 48  49 0
 3-21G
 ****


