%nproc=1
%NoSave
%Mem=1900MB
#P OB98/GEN NMR

erre ene a

0 1
  C      168.935    -231.021     515.361
  O      168.840    -231.601     514.076
  H      168.305    -230.130     515.389
  H      169.968    -230.724     515.557
  H      168.594    -231.714     516.134
  P      169.432    -233.072     513.846
  C      167.787    -234.614     512.592
  O      168.787    -233.610     512.477
  C      167.567    -235.323     511.252
  O      166.884    -234.409     510.343
  C      168.869    -235.767     510.563
  O      168.570    -236.948     509.811
  C      169.136    -234.601     509.629
  O      170.050    -234.949     508.615
  C      167.712    -234.267     509.175
  N      167.609    -232.933     508.587
  C      167.797    -232.843     507.209
  O      168.068    -233.815     506.503
  N      167.711    -231.587     506.672
  C      167.518    -230.433     507.374
  O      167.485    -229.328     506.844
  C      167.373    -230.583     508.828
  C      167.423    -231.807     509.364
  O      169.315    -234.008     515.001
  O      170.959    -232.825     513.435
  H      170.070    -234.252     507.924
  H      171.512    -233.576     513.724
  H      167.832    -231.507     505.678
  H      167.230    -229.681     509.417
  H      167.315    -231.948     510.431
  H      167.363    -234.992     508.423
  H      169.566    -233.758     510.179
  H      169.686    -235.955     511.262
  H      166.895    -236.176     511.414
  H      166.858    -234.128     512.911
  H      168.085    -235.343     513.352
  P      168.874    -238.417     510.374
  C      166.983    -239.261     508.837
  O      168.298    -239.499     509.334
  O      168.436    -238.637     511.788
  O      170.459    -238.589     510.244
  H      170.784    -239.208     510.923
  H      166.711    -240.042     508.158
  H      166.959    -238.321     508.326
  H      166.291    -239.241     509.653

 6  7  8  9  10  11  12  13  14  15  16  26  31  32  33  34  35 0
 6-311+G(2d,p)
 ****
 36  37 0
 6-311+G(2d,p)
 ****
 1  2  3  4  5  17  18  19  20  21  22  23  24  25 0
 3-21G
 ****
 27  28  29  30  38  39  40  41  42  43  44  45 0
 3-21G
 ****


