%nproc=1
%NoSave
%Mem=1900MB
#P OB98/GEN NMR

erre ene a

0 1
  C      -69.695     403.520    -249.680
  O      -69.825     403.827    -248.306
  H      -70.654     403.685    -250.171
  H      -69.409     402.469    -249.802
  H      -68.944     404.167    -250.148
  P      -68.477     403.824    -247.435
  C      -67.240     405.897    -248.473
  O      -67.356     404.487    -248.368
  C      -65.780     406.310    -248.682
  O      -65.322     405.775    -249.952
  C      -65.566     407.823    -248.708
  O      -64.303     408.112    -248.098
  C      -65.491     408.142    -250.189
  O      -64.792     409.360    -250.446
  C      -64.816     406.873    -250.734
  N      -65.063     406.679    -252.162
  C      -64.396     407.535    -253.040
  O      -63.653     408.418    -252.604
  N      -64.616     407.410    -254.386
  C      -65.480     406.546    -254.823
  N      -65.670     406.483    -256.165
  C      -66.240     405.646    -253.928
  C      -65.972     405.759    -252.627
  O      -68.096     402.270    -247.427
  O      -68.615     404.435    -246.075
  H      -65.345     410.106    -250.133
  H      -68.181     401.847    -248.294
  H      -66.953     404.947    -254.336
  H      -66.479     405.133    -251.900
  H      -63.725     406.919    -250.579
  H      -66.498     408.240    -250.603
  H      -66.357     408.377    -248.193
  H      -65.172     405.839    -247.899
  H      -65.147     407.133    -256.738
  H      -67.627     406.380    -247.569
  H      -66.352     405.890    -256.613
  H      -67.850     406.224    -249.321
  P      -64.138     409.440    -247.209
  C      -64.784     408.341    -244.958
  O      -65.094     409.336    -245.928
  O      -64.204     410.730    -247.960
  O      -62.678     409.249    -246.566
  H      -62.232     410.117    -246.580
  H      -65.498     408.383    -244.163
  H      -63.804     408.517    -244.567
  H      -64.817     407.374    -245.416

 6  7  8  9  10  11  12  13  14  15  16  26  30  31  32  33  35 0
 6-311+G(2d,p)
 ****
 37  38 0
 6-311+G(2d,p)
 ****
 1  2  3  4  5  17  18  19  20  21  22  23  24  25 0
 3-21G
 ****
 27  28  29  34  36  39  40  41  42  43  44  45  46 0
 3-21G
 ****


