%nproc=1
%NoSave
%Mem=1900MB
#P OB98/GEN NMR

erre ene a

0 1
  C      202.880     771.519     362.500
  O      202.566     771.618     361.126
  H      203.927     771.219     362.599
  H      202.252     770.759     362.971
  H      202.740     772.484     362.999
  P      201.136     772.244     360.759
  C      201.589     772.918     358.290
  O      200.933     772.021     359.180
  C      201.600     772.335     356.881
  O      202.631     771.325     356.760
  C      200.290     771.664     356.463
  O      199.337     772.611     356.006
  C      200.787     770.783     355.331
  O      200.988     771.584     354.144
  C      202.128     770.283     355.864
  N      203.687     765.458     356.041
  C      203.962     766.450     355.110
  N      204.763     766.104     354.087
  N      203.496     767.671     355.189
  C      202.698     767.874     356.269
  C      202.344     766.968     357.253
  C      202.883     765.625     357.162
  O      202.680     764.720     357.964
  N      201.530     767.538     358.184
  C      201.369     768.786     357.768
  N      202.051     769.032     356.606
  O      201.376     773.823     360.878
  O      200.000     771.802     361.624
  H      200.109     771.805     353.799
  H      200.569     774.243     361.229
  H      204.059     764.538     355.929
  H      200.771     769.534     358.268
  H      202.875     770.140     355.077
  H      200.071     769.997     355.067
  H      205.114     765.175     353.943
  H      199.893     771.033     357.268
  H      205.009     766.832     353.422
  H      201.856     773.144     356.186
  H      202.617     773.062     358.636
  H      201.066     773.876     358.299
  P      197.793     772.338     356.359
  C      197.038     774.821     356.480
  O      196.986     773.597     355.761
  O      197.746     772.578     357.939
  O      197.290     770.991     355.986
  H      196.976     772.112     358.324
  H      196.460     775.561     355.967
  H      198.054     775.149     356.552
  H      196.640     774.675     357.462

 6  7  8  9  10  11  12  13  14  15  26  29  33  34 0
 6-311+G(2d,p)
 ****
 36  38  39  40  41 0
 6-311+G(2d,p)
 ****
 1  2  3  4  5  16  17  18  19  20  21  22  23  24  25 0
 3-21G
 ****
 27  28  30  31  32  35  37  42  43  44  45  46  47 0
 3-21G
 ****
 48  49 0
 3-21G
 ****


