%nproc=1
%NoSave
%Mem=1900MB
#P OB98/GEN NMR

erre ene a

0 1
  C     -899.207    -899.010     266.109
  O     -898.217    -898.550     265.187
  P     -898.577    -898.270     263.644
  C     -896.097    -898.750     263.165
  O     -897.197    -897.880     262.966
  C     -894.997    -898.460     262.129
  O     -895.447    -898.890     260.830
  C     -894.627    -897.010     261.992
  O     -893.807    -896.570     263.063
  C     -893.957    -897.000     260.622
  O     -892.617    -897.480     260.710
  C     -894.827    -898.020     259.835
  N     -895.827    -897.410     258.986
  C     -895.367    -896.830     257.808
  O     -894.157    -896.860     257.505
  N     -896.267    -896.250     256.942
  C     -897.527    -896.220     257.264
  N     -898.397    -895.690     256.355
  C     -898.057    -896.770     258.527
  C     -897.157    -897.340     259.340
  O     -899.687    -897.300     263.428
  O     -898.867    -899.720     263.038
  H     -892.207    -897.350     259.834
  H     -899.807    -900.000     263.129
  H     -899.117    -896.710     258.749
  H     -897.477    -897.790     260.264
  H     -894.187    -898.670     259.234
  H     -893.937    -896.010     260.145
  H     -895.537    -896.380     261.959
  H     -894.107    -899.070     262.389
  H     -898.007    -895.490     255.440
  H     -896.437    -899.790     263.043
  H     -899.387    -895.900     256.395
  H     -895.707    -898.630     264.178
  P     -894.347    -895.360     263.963
  C     -891.887    -894.560     264.168
  O     -893.077    -894.880     264.849
  O     -895.307    -896.080     265.033
  O     -895.047    -894.280     263.206
  H     -896.247    -895.970     264.759
  H     -891.227    -894.030     264.856
  H     -892.087    -893.900     263.302
  H     -891.397    -895.480     263.828
  H     -898.765    -899.133     267.076
  H     -899.598    -899.948     265.774
  H     -900.000    -898.294     266.168

 3  4  5  6  7  8  9  10  11  12  13  23  27  28  29  30  32 0
 6-311+G(2d,p)
 ****
 34  35 0
 6-311+G(2d,p)
 ****
 1  2  14  15  16  17  18  19  20  21  22  24  25  26 0
 3-21G
 ****
 31  33  36  37  38  39  40  41  42  43  44  45  46 0
 3-21G
 ****


