%nproc=1
%NoSave
%Mem=1900MB
#P OB98/GEN NMR

erre ene a

0 1
  C     -167.471     137.426    -953.327
  O     -168.744     138.007    -953.646
  P     -168.868     139.579    -953.902
  C     -170.003     140.340    -951.697
  O     -168.816     140.338    -952.481
  C     -169.676     140.767    -950.267
  O     -168.528     141.655    -950.213
  C     -170.805     141.560    -949.599
  O     -171.995     140.855    -949.303
  C     -170.094     142.257    -948.453
  O     -169.966     141.412    -947.317
  C     -168.708     142.542    -949.074
  N     -168.529     143.930    -949.471
  C     -168.424     144.851    -948.434
  O     -168.502     144.555    -947.245
  N     -168.251     146.165    -948.802
  C     -168.217     146.635    -950.092
  O     -168.081     147.817    -950.372
  C     -168.354     145.614    -951.155
  C     -168.500     144.340    -950.802
  O     -169.960     140.014    -954.807
  O     -167.431     139.947    -954.535
  H     -169.460     141.895    -946.641
  H     -167.579     140.587    -955.253
  H     -168.161     146.859    -948.064
  H     -168.341     145.956    -952.184
  H     -168.609     143.574    -951.560
  H     -167.905     142.285    -948.358
  H     -170.633     143.151    -948.131
  H     -171.109     142.365    -950.313
  H     -169.428     139.880    -949.670
  H     -170.447     139.347    -951.707
  H     -170.731     141.020    -952.158
  P     -173.276     140.850    -950.246
  C     -174.675     142.074    -948.433
  O     -174.269     142.020    -949.790
  O     -173.901     139.523    -950.583
  O     -172.673     141.451    -951.624
  H     -173.141     141.051    -952.372
  H     -175.342     142.912    -948.298
  H     -173.815     142.202    -947.777
  H     -175.203     141.142    -948.157
  H     -167.585     136.371    -953.191
  H     -167.095     137.863    -952.426
  H     -166.784     137.611    -954.126

 3  4  5  6  7  8  9  10  11  12  13  23  28  29  30  31  32 0
 6-311+G(2d,p)
 ****
 33  34 0
 6-311+G(2d,p)
 ****
 1  2  14  15  16  17  18  19  20  21  22  24  25  26  27 0
 3-21G
 ****
 35  36  37  38  39  40  41  42  43  44  45 0
 3-21G
 ****


