%nproc=1
%NoSave
%Mem=1900MB
#P OB98/GEN NMR

erre ene a

0 1
  C     -950.736     -13.089    -334.256
  O     -951.833     -12.749    -333.410
  P     -951.597     -11.934    -332.040
  C     -951.132     -12.764    -329.639
  O     -950.919     -12.974    -331.025
  C     -950.044     -13.474    -328.805
  O     -950.202     -14.908    -328.968
  C     -948.596     -13.146    -329.248
  O     -947.796     -13.130    -328.087
  C     -948.236     -14.291    -330.159
  O     -946.833     -14.459    -330.280
  C     -948.965     -15.437    -329.461
  N     -949.191     -16.590    -330.317
  C     -948.869     -17.855    -329.811
  O     -948.391     -17.991    -328.684
  N     -949.073     -18.959    -330.608
  C     -949.503     -18.810    -331.834
  N     -949.762     -19.948    -332.558
  C     -949.754     -17.482    -332.433
  C     -949.588     -16.443    -331.636
  O     -952.825     -11.239    -331.515
  O     -950.385     -10.922    -332.383
  H     -946.430     -13.593    -330.507
  H     -950.679     -10.103    -332.813
  H     -950.077     -17.411    -333.474
  H     -949.768     -15.429    -331.988
  H     -948.392     -15.766    -328.555
  H     -948.650     -14.129    -331.176
  H     -948.533     -12.146    -329.742
  H     -950.196     -13.227    -327.758
  H     -949.753     -20.813    -332.035
  H     -952.111     -13.192    -329.362
  H     -950.387     -19.921    -333.366
  H     -951.173     -11.695    -329.407
  P     -946.956     -11.789    -327.722
  C     -944.443     -11.123    -327.821
  O     -945.470     -11.990    -328.283
  O     -946.751     -11.958    -326.128
  O     -947.614     -10.490    -328.010
  H     -946.631     -11.074    -325.746
  H     -943.494     -11.405    -328.319
  H     -944.316     -11.196    -326.752
  H     -944.689     -10.081    -328.110
  H     -951.096     -13.625    -335.109
  H     -950.045     -13.702    -333.716
  H     -950.243     -12.195    -334.578

 3  4  5  6  7  8  9  10  11  12  13  23  27  28  29  30  32 0
 6-311+G(2d,p)
 ****
 34  35 0
 6-311+G(2d,p)
 ****
 1  2  14  15  16  17  18  19  20  21  22  24  25  26 0
 3-21G
 ****
 31  33  36  37  38  39  40  41  42  43  44  45  46 0
 3-21G
 ****


