%nproc=1
%NoSave
%Mem=1900MB
#P OB98/GEN NMR

erre ene a

0 1
  C     -294.816      57.052       3.626
  O     -295.902      56.878       2.741
  H     -294.220      56.137       3.631
  H     -295.191      57.234       4.638
  H     -294.180      57.884       3.315
  P     -296.726      58.165       2.268
  C     -295.462      59.386       0.379
  O     -296.411      58.385       0.709
  C     -295.443      59.652      -1.132
  O     -294.799      58.546      -1.812
  C     -296.872      59.741      -1.676
  O     -296.960      60.582      -2.823
  C     -297.163      58.304      -2.088
  O     -298.209      58.203      -3.051
  C     -295.793      57.866      -2.601
  N     -295.524      53.458      -5.145
  C     -295.900      54.707      -5.599
  N     -296.275      54.787      -6.895
  N     -295.922      55.775      -4.844
  C     -295.595      55.530      -3.553
  C     -295.229      54.333      -2.980
  C     -295.169      53.167      -3.833
  O     -294.860      52.029      -3.481
  N     -294.987      54.474      -1.634
  C     -295.212      55.750      -1.393
  N     -295.571      56.436      -2.529
  O     -295.950      59.388       2.955
  O     -298.181      58.171       2.626
  H     -298.241      57.276      -3.354
  H     -296.546      60.148       3.070
  H     -295.508      52.672      -5.772
  H     -295.127      56.225      -0.424
  H     -295.658      58.167      -3.649
  H     -297.484      57.751      -1.200
  H     -296.442      53.970      -7.461
  H     -297.577      60.092      -0.924
  H     -296.825      55.609      -7.162
  H     -294.852      60.549      -1.352
  H     -294.480      59.023       0.706
  H     -295.671      60.306       0.929
  P     -298.333      61.377      -3.055
  C     -298.125      63.574      -1.633
  O     -298.024      62.942      -2.896
  O     -299.198      61.013      -1.763
  O     -299.032      61.014      -4.322
  H     -299.899      60.374      -1.993
  H     -297.882      64.611      -1.733
  H     -297.445      63.112      -0.948
  H     -299.125      63.476      -1.264

 6  7  8  9  10  11  12  13  14  15  26  29  33  34 0
 6-311+G(2d,p)
 ****
 36  38  39  40  41 0
 6-311+G(2d,p)
 ****
 1  2  3  4  5  16  17  18  19  20  21  22  23  24  25 0
 3-21G
 ****
 27  28  30  31  32  35  37  42  43  44  45  46  47 0
 3-21G
 ****
 48  49 0
 3-21G
 ****


