%nproc=1
%NoSave
%Mem=1900MB
#P OB98/GEN NMR

erre ene a

0 1
  C      536.039     334.729      27.359
  O      534.836     334.724      28.105
  H      535.793     334.859      26.303
  H      536.581     333.785      27.482
  H      536.673     335.564      27.676
  P      534.906     334.272      29.648
  C      534.545     331.835      28.882
  O      535.370     332.730      29.619
  C      533.192     331.637      29.564
  O      532.323     330.815      28.752
  C      533.268     330.911      30.903
  O      533.925     331.625      31.925
  C      531.825     330.475      31.103
  O      531.009     331.508      31.650
  C      531.393     330.171      29.647
  N      531.309     328.740      29.386
  C      530.119     328.111      29.774
  O      529.198     328.704      30.332
  N      530.040     326.772      29.530
  C      531.031     325.990      28.992
  O      530.905     324.792      28.816
  C      532.273     326.698      28.629
  C      532.349     328.015      28.841
  O      533.664     334.515      30.455
  O      536.199     335.031      30.208
  H      530.161     331.100      31.894
  H      536.210     335.028      31.200
  H      529.187     326.305      29.794
  H      533.077     326.119      28.213
  H      533.257     328.562      28.579
  H      530.408     330.609      29.449
  H      531.747     329.613      31.772
  H      533.856     329.994      30.760
  H      532.721     332.618      29.672
  H      535.067     330.874      28.818
  H      534.406     332.220      27.869
  P      535.144     331.042      32.781
  C      533.605     329.914      34.575
  O      534.625     329.753      33.595
  O      535.987     332.039      33.503
  O      536.055     330.372      31.630
  H      536.984     330.472      31.905
  H      533.381     328.965      35.016
  H      532.725     330.308      34.112
  H      533.942     330.589      35.333

 6  7  8  9  10  11  12  13  14  15  16  26  31  32  33  34  35 0
 6-311+G(2d,p)
 ****
 36  37 0
 6-311+G(2d,p)
 ****
 1  2  3  4  5  17  18  19  20  21  22  23  24  25 0
 3-21G
 ****
 27  28  29  30  38  39  40  41  42  43  44  45 0
 3-21G
 ****


