%nproc=1
%NoSave
%Mem=1900MB
#P OB98/GEN NMR

erre ene a

0 1
  C      640.683    -305.761     838.223
  O      639.994    -305.583     839.446
  H      640.969    -304.780     837.839
  H      640.033    -306.251     837.493
  H      641.588    -306.358     838.375
  P      639.549    -306.873     840.284
  C      641.344    -306.782     842.122
  O      640.880    -307.465     840.964
  C      642.255    -307.693     842.949
  O      641.465    -308.816     843.440
  C      643.441    -308.253     842.162
  O      644.570    -308.304     843.036
  C      642.999    -309.668     841.822
  O      644.109    -310.553     841.640
  C      642.136    -310.024     843.026
  N      641.604    -314.830     841.546
  C      642.747    -314.119     841.862
  N      643.925    -314.769     841.757
  N      642.729    -312.867     842.268
  C      641.482    -312.346     842.344
  C      640.279    -312.946     842.051
  C      640.310    -314.319     841.601
  O      639.336    -314.997     841.288
  N      639.230    -312.077     842.228
  C      639.795    -310.952     842.621
  N      641.160    -311.059     842.699
  O      638.744    -307.880     839.526
  O      638.737    -306.272     841.523
  H      644.475    -310.739     842.525
  H      637.775    -306.341     841.370
  H      641.681    -315.780     841.236
  H      639.268    -310.035     842.862
  H      642.729    -310.398     843.877
  H      642.407    -309.658     840.898
  H      644.004    -315.732     841.474
  H      643.677    -307.681     841.268
  H      644.769    -314.269     842.007
  H      642.591    -307.133     843.833
  H      640.476    -306.484     842.721
  H      641.885    -305.883     841.825
  P      645.925    -307.552     842.576
  C      645.915    -305.846     844.508
  O      645.848    -306.037     843.102
  O      646.308    -307.725     841.147
  O      647.023    -308.197     843.561
  H      647.884    -308.195     843.095
  H      645.854    -304.801     844.729
  H      646.841    -306.235     844.877
  H      645.101    -306.358     844.977

 6  7  8  9  10  11  12  13  14  15  26  29  33  34 0
 6-311+G(2d,p)
 ****
 36  38  39  40  41 0
 6-311+G(2d,p)
 ****
 1  2  3  4  5  16  17  18  19  20  21  22  23  24  25 0
 3-21G
 ****
 27  28  30  31  32  35  37  42  43  44  45  46  47 0
 3-21G
 ****
 48  49 0
 3-21G
 ****


