%nproc=1
%NoSave
%Mem=1900MB
#P OB98/GEN NMR

erre ene a

0 1
  C        7.910     361.476     902.884
  O        7.185     360.283     903.126
  P        5.598     360.218     902.901
  C        3.626     361.707     903.688
  O        4.980     361.327     903.895
  C        2.953     361.929     905.035
  O        3.693     362.874     905.818
  C        1.528     362.475     904.954
  O        0.606     361.469     904.575
  C        1.343     363.029     906.357
  O        1.017     361.974     907.275
  C        2.748     363.579     906.670
  N        2.854     365.024     906.484
  C        2.754     365.809     907.620
  O        2.580     365.313     908.733
  N        2.862     367.188     907.501
  C        3.043     367.708     906.333
  N        3.209     369.055     906.276
  C        3.094     366.928     905.082
  C        2.994     365.597     905.233
  O        4.990     358.869     903.033
  O        5.358     360.883     901.457
  H        0.102     361.718     907.104
  H        5.421     360.233     900.710
  H        3.234     367.418     904.127
  H        3.072     364.953     904.371
  H        3.042     363.349     907.693
  H        0.559     363.785     906.425
  H        1.490     363.295     904.227
  H        2.953     360.961     905.583
  H        3.337     369.546     907.161
  H        3.111     360.902     903.158
  H        3.628     369.513     905.461
  H        3.603     362.624     903.085
  P       -0.647     361.897     903.654
  C       -2.589     363.592     903.927
  O       -1.524     362.884     904.567
  O       -1.502     360.554     903.546
  O       -0.258     362.435     902.313
  H       -1.358     360.130     902.680
  H       -3.233     364.003     904.716
  H       -3.188     362.903     903.310
  H       -2.184     364.407     903.323
  H        8.947     361.312     903.092
  H        7.538     362.254     903.517
  H        7.793     361.763     901.860

 3  4  5  6  7  8  9  10  11  12  13  23  27  28  29  30  32 0
 6-311+G(2d,p)
 ****
 34  35 0
 6-311+G(2d,p)
 ****
 1  2  14  15  16  17  18  19  20  21  22  24  25  26 0
 3-21G
 ****
 31  33  36  37  38  39  40  41  42  43  44  45  46 0
 3-21G
 ****


