%nproc=1
%NoSave
%Mem=1900MB
#P OB98/GEN NMR

erre ene a

0 1
  C       87.714     203.459     252.929
  O       88.597     202.386     252.675
  H       86.756     203.246     252.449
  H       88.121     204.381     252.508
  H       87.554     203.578     254.003
  P       90.041     202.455     253.370
  C       90.916     203.795     251.330
  O       91.104     202.678     252.185
  C       92.079     203.928     250.349
  O       93.304     204.175     251.101
  C       92.318     202.683     249.480
  O       92.762     203.122     248.190
  C       93.485     202.003     250.177
  O       94.198     201.118     249.315
  C       94.280     203.228     250.628
  N       98.837     201.244     251.407
  C       98.154     201.486     250.232
  N       98.779     201.150     249.084
  N       96.960     202.015     250.185
  C       96.468     202.334     251.407
  C       97.039     202.141     252.641
  C       98.351     201.530     252.680
  O       98.998     201.273     253.690
  N       96.206     202.573     253.643
  C       95.137     203.027     253.015
  N       95.249     202.902     251.657
  O       90.287     200.939     253.818
  O       90.155     203.403     254.516
  H       93.568     200.441     248.992
  H       89.997     200.808     254.740
  H       99.749     200.823     251.388
  H       94.261     203.447     253.491
  H       94.837     203.690     249.804
  H       93.128     201.427     251.039
  H       99.715     200.782     249.040
  H       91.443     202.033     249.371
  H       98.312     201.359     248.209
  H       91.910     204.813     249.725
  H       90.855     204.703     251.940
  H       89.976     203.673     250.780
  P       91.652     203.486     247.096
  C       91.318     200.989     246.454
  O       91.613     202.305     246.013
  O       92.332     204.687     246.283
  O       90.333     203.887     247.669
  H       91.644     205.266     245.909
  H       91.330     200.322     245.618
  H       90.349     200.974     246.908
  H       92.052     200.679     247.168

 6  7  8  9  10  11  12  13  14  15  26  29  33  34 0
 6-311+G(2d,p)
 ****
 36  38  39  40  41 0
 6-311+G(2d,p)
 ****
 1  2  3  4  5  16  17  18  19  20  21  22  23  24  25 0
 3-21G
 ****
 27  28  30  31  32  35  37  42  43  44  45  46  47 0
 3-21G
 ****
 48  49 0
 3-21G
 ****


