%nproc=1
%NoSave
%Mem=1900MB
#P OB98/GEN NMR

erre ene a

0 1
  C      134.793     284.972    -313.779
  O      135.106     285.152    -315.145
  H      135.423     285.640    -313.184
  H      134.992     283.941    -313.475
  H      133.744     285.220    -313.598
  P      134.367     284.187    -316.191
  C      135.246     285.863    -317.975
  O      134.983     284.507    -317.637
  C      136.456     285.935    -318.900
  O      137.665     285.648    -318.151
  C      136.435     284.913    -320.030
  O      135.593     285.303    -321.101
  C      137.900     284.889    -320.426
  O      138.222     285.947    -321.340
  C      138.617     285.087    -319.074
  N      139.191     283.840    -318.578
  C      140.073     283.199    -319.444
  O      140.369     283.632    -320.559
  N      140.580     282.005    -319.004
  C      140.260     281.385    -317.833
  O      140.710     280.285    -317.522
  C      139.310     282.101    -316.965
  C      138.821     283.274    -317.373
  O      132.889     284.792    -316.264
  O      134.363     282.742    -315.817
  H      132.269     284.208    -315.787
  H      138.132     286.780    -320.831
  H      141.221     281.526    -319.615
  H      139.032     281.635    -316.029
  H      138.111     283.818    -316.759
  H      139.427     285.821    -319.176
  H      138.159     283.952    -320.913
  H      136.153     283.927    -319.643
  H      136.532     286.955    -319.302
  H      135.460     286.437    -317.065
  H      134.358     286.288    -318.454
  P      135.322     284.232    -322.268
  C      133.691     285.743    -323.679
  O      134.946     285.090    -323.570
  O      133.932     283.610    -321.775
  O      136.433     283.255    -322.433
  H      133.421     284.241    -321.237
  H      133.637     286.257    -324.616
  H      133.584     286.446    -322.879
  H      132.906     285.018    -323.624

 6  7  8  9  10  11  12  13  14  15  16  27  31  32  33  34  35 0
 6-311+G(2d,p)
 ****
 36  37 0
 6-311+G(2d,p)
 ****
 1  2  3  4  5  17  18  19  20  21  22  23  24  25 0
 3-21G
 ****
 26  28  29  30  38  39  40  41  42  43  44  45 0
 3-21G
 ****


