%nproc=1
%NoSave
%Mem=1900MB
#P OB98/GEN NMR

erre ene a

0 1
  C     -604.038     543.301     512.357
  O     -604.333     542.549     511.191
  P     -603.452     541.259     510.813
  C     -603.942     539.153     509.410
  O     -604.497     540.198     510.212
  C     -605.002     538.584     508.461
  O     -605.825     537.609     509.144
  C     -605.964     539.616     507.894
  O     -605.352     540.369     506.865
  C     -607.111     538.737     507.442
  O     -606.857     538.170     506.156
  C     -607.130     537.634     508.533
  N     -608.188     537.839     509.517
  C     -609.192     536.871     509.536
  O     -609.171     535.930     508.745
  N     -610.225     537.005     510.446
  C     -610.263     538.046     511.218
  N     -611.316     538.132     512.086
  C     -609.237     539.111     511.202
  C     -608.249     538.940     510.332
  O     -602.564     540.749     511.897
  O     -602.655     541.744     509.514
  H     -607.446     537.387     506.081
  H     -601.921     542.369     509.749
  H     -609.306     539.955     511.870
  H     -607.448     539.679     510.247
  H     -607.282     536.649     508.074
  H     -608.058     539.294     507.370
  H     -606.314     540.283     508.704
  H     -604.479     538.069     507.638
  H     -612.008     537.396     512.044
  H     -603.592     538.357     510.073
  H     -611.457     538.912     512.705
  H     -603.086     539.547     508.849
  P     -606.104     541.623     506.223
  C     -605.477     543.941     505.298
  O     -605.012     542.773     505.979
  O     -607.341     542.066     506.945
  O     -606.457     541.129     504.740
  H     -607.380     541.391     504.533
  H     -604.760     544.749     505.485
  H     -606.453     544.233     505.648
  H     -605.516     543.733     504.231
  H     -604.727     544.115     512.440
  H     -603.041     543.683     512.292
  H     -604.124     542.672     513.218

 3  4  5  6  7  8  9  10  11  12  13  23  27  28  29  30  32 0
 6-311+G(2d,p)
 ****
 34  35 0
 6-311+G(2d,p)
 ****
 1  2  14  15  16  17  18  19  20  21  22  24  25  26 0
 3-21G
 ****
 31  33  36  37  38  39  40  41  42  43  44  45  46 0
 3-21G
 ****


