%nproc=1
%NoSave
%Mem=1900MB
#P OB98/GEN NMR

erre ene a

0 1
  C      -22.899    -144.623    -155.351
  O      -21.783    -145.446    -155.058
  P      -22.029    -146.671    -154.046
  C      -21.260    -144.975    -152.218
  O      -22.134    -146.030    -152.581
  C      -22.049    -143.872    -151.505
  O      -23.263    -143.583    -152.228
  C      -22.474    -144.226    -150.085
  O      -21.405    -144.008    -149.179
  C      -23.656    -143.286    -149.879
  O      -23.206    -141.962    -149.530
  C      -24.317    -143.297    -151.266
  N      -29.263    -144.094    -150.590
  C      -28.465    -143.041    -150.177
  N      -29.092    -142.034    -149.529
  N      -27.178    -142.979    -150.383
  C      -26.688    -144.062    -151.029
  C      -27.369    -145.170    -151.473
  C      -28.801    -145.203    -151.285
  O      -29.563    -146.065    -151.717
  N      -26.526    -146.076    -152.068
  C      -25.344    -145.496    -152.009
  N      -25.388    -144.264    -151.410
  O      -20.624    -147.427    -154.043
  O      -23.170    -147.573    -154.405
  H      -22.567    -142.023    -148.799
  H      -20.645    -148.199    -154.642
  H      -30.252    -144.081    -150.417
  H      -24.430    -145.917    -152.405
  H      -24.734    -142.316    -151.530
  H      -24.310    -143.616    -149.068
  H      -30.077    -142.023    -149.313
  H      -22.816    -145.266    -150.034
  H      -28.525    -141.254    -149.217
  H      -21.435    -142.964    -151.508
  H      -20.798    -144.562    -153.118
  H      -20.474    -145.368    -151.565
  P      -20.882    -145.268    -148.335
  C      -21.857    -144.111    -146.224
  O      -21.724    -145.307    -146.975
  O      -19.419    -144.817    -147.873
  O      -20.842    -146.550    -149.100
  H      -18.825    -145.593    -147.871
  H      -22.806    -144.138    -145.687
  H      -21.836    -143.227    -146.865
  H      -21.041    -144.050    -145.500
  H      -22.604    -143.851    -156.031
  H      -23.264    -144.182    -154.447
  H      -23.671    -145.215    -155.796

 3  4  5  6  7  8  9  10  11  12  23  26  30  31 0
 6-311+G(2d,p)
 ****
 33  35  36  37  38 0
 6-311+G(2d,p)
 ****
 1  2  13  14  15  16  17  18  19  20  21  22  24  25 0
 3-21G
 ****
 27  28  29  32  34  39  40  41  42  43  44  45  46  47  48  49 0
 3-21G
 ****


