%nproc=1
%NoSave
%Mem=1900MB
#P OB98/GEN NMR

erre ene a

0 1
  C      966.298    -889.774      -3.705
  O      965.720    -890.624      -4.673
  H      967.385    -889.874      -3.743
  H      965.953    -890.074      -2.706
  H      966.027    -888.724      -3.890
  P      964.185    -890.364      -5.065
  C      963.734    -892.924      -5.059
  O      963.663    -891.704      -5.785
  C      964.535    -893.964      -5.841
  O      965.964    -893.694      -5.647
  C      964.280    -895.424      -5.400
  O      964.325    -896.274      -6.553
  C      965.489    -895.724      -4.533
  O      965.748    -897.124      -4.448
  C      966.571    -894.944      -5.265
  N      970.799    -897.154      -3.706
  C      969.906    -897.514      -4.704
  N      970.147    -898.684      -5.349
  N      968.869    -896.804      -5.039
  C      968.766    -895.644      -4.321
  C      969.565    -895.174      -3.310
  C      970.704    -895.984      -2.946
  O      971.516    -895.744      -2.052
  N      969.074    -893.994      -2.803
  C      967.970    -893.764      -3.491
  N      967.739    -894.744      -4.423
  O      964.309    -889.314      -6.268
  O      963.326    -889.854      -3.962
  H      966.568    -897.254      -3.944
  H      964.220    -888.404      -5.926
  H      971.573    -897.744      -3.474
  H      967.304    -892.924      -3.338
  H      966.913    -895.444      -6.181
  H      965.323    -895.334      -3.518
  H      970.946    -899.264      -5.171
  H      963.329    -895.564      -4.871
  H      969.529    -898.934      -6.113
  H      964.330    -893.844      -6.905
  H      962.716    -893.314      -4.906
  H      964.184    -892.744      -4.086
  P      963.404    -897.574      -6.570
  C      965.390    -899.244      -6.882
  O      964.170    -898.734      -7.392
  O      962.209    -897.154      -7.536
  O      962.901    -897.984      -5.219
  H      961.377    -897.584      -7.238
  H      965.764    -900.000      -7.541
  H      965.223    -899.667      -5.913
  H      966.104    -898.451      -6.807

 6  7  8  9  10  11  12  13  14  15  26  29  33  34 0
 6-311+G(2d,p)
 ****
 36  38  39  40  41 0
 6-311+G(2d,p)
 ****
 1  2  3  4  5  16  17  18  19  20  21  22  23  24  25 0
 3-21G
 ****
 27  28  30  31  32  35  37  42  43  44  45  46  47 0
 3-21G
 ****
 48  49 0
 3-21G
 ****


