%nproc=1
%NoSave
%Mem=1900MB
#P OB98/GEN NMR

erre ene a

0 1
  C     -143.919      14.781      18.861
  O     -143.728      14.496      20.254
  P     -143.169      15.574      21.305
  C     -140.858      16.283      22.237
  O     -141.596      15.315      21.498
  C     -140.077      15.625      23.376
  O     -140.978      14.883      24.236
  C     -139.043      14.592      22.945
  O     -137.894      15.190      22.371
  C     -138.783      13.862      24.260
  O     -137.809      14.551      25.058
  C     -140.161      13.918      24.948
  N     -140.819      12.623      25.009
  C     -140.596      11.860      26.162
  O     -139.812      12.252      27.026
  N     -141.259      10.666      26.292
  C     -141.991      10.220      25.319
  N     -142.638       9.037      25.515
  C     -142.141      10.930      24.033
  C     -141.535      12.113      23.950
  O     -143.933      15.619      22.591
  O     -143.237      16.982      20.545
  H     -143.322      17.702      21.198
  H     -137.841      14.154      25.950
  H     -142.727      10.502      23.230
  H     -141.607      12.709      23.044
  H     -140.062      14.321      25.963
  H     -138.406      12.846      24.099
  H     -139.503      13.898      22.228
  H     -139.601      16.416      23.968
  H     -142.520       8.581      26.412
  H     -141.564      17.006      22.662
  H     -143.246       8.618      24.830
  H     -140.184      16.819      21.557
  P     -137.228      14.430      21.121
  C     -135.337      12.684      20.779
  O     -136.038      13.515      21.685
  O     -136.468      15.603      20.333
  O     -138.201      13.721      20.238
  H     -136.563      15.461      19.370
  H     -134.324      12.525      21.161
  H     -135.275      13.130      19.782
  H     -135.844      11.717      20.713
  H     -144.298      13.911      18.368
  H     -142.984      15.060      18.423
  H     -144.617      15.585      18.754

 3  4  5  6  7  8  9  10  11  12  13  24  27  28  29  30  32 0
 6-311+G(2d,p)
 ****
 34  35 0
 6-311+G(2d,p)
 ****
 1  2  14  15  16  17  18  19  20  21  22  23  25  26 0
 3-21G
 ****
 31  33  36  37  38  39  40  41  42  43  44  45  46 0
 3-21G
 ****


