%nproc=1
%NoSave
%Mem=1900MB
#P OB98/GEN NMR

erre ene a

0 1
  C      180.015    -222.028    -109.289
  O      179.752    -222.979    -110.305
  P      180.333    -222.658    -111.770
  C      177.849    -222.548    -112.566
  O      179.139    -221.961    -112.582
  C      176.791    -221.461    -112.355
  O      177.244    -220.509    -111.371
  C      176.461    -220.657    -113.605
  O      175.537    -221.359    -114.417
  C      175.898    -219.374    -113.000
  O      174.521    -219.547    -112.618
  C      176.794    -219.184    -111.768
  N      178.276    -214.401    -112.461
  C      177.003    -214.944    -112.433
  N      175.978    -214.074    -112.565
  N      176.759    -216.218    -112.286
  C      177.881    -216.969    -112.180
  C      179.191    -216.551    -112.210
  C      179.446    -215.133    -112.318
  O      180.548    -214.596    -112.250
  N      180.058    -217.608    -112.095
  C      179.270    -218.656    -111.965
  N      177.941    -218.322    -111.988
  O      180.466    -224.103    -112.433
  O      181.618    -221.891    -111.791
  H      174.144    -218.682    -112.380
  H      181.386    -224.427    -112.375
  H      178.403    -213.410    -112.560
  H      179.611    -219.672    -111.830
  H      176.240    -218.766    -110.918
  H      175.925    -218.541    -113.707
  H      176.090    -213.081    -112.705
  H      177.375    -220.430    -114.167
  H      175.038    -214.453    -112.548
  H      175.889    -221.944    -111.958
  H      177.791    -223.271    -111.750
  H      177.680    -223.070    -113.515
  P      175.958    -221.646    -115.939
  C      174.247    -219.999    -116.991
  O      175.609    -220.332    -116.781
  O      174.871    -222.716    -116.423
  O      177.347    -222.164    -116.108
  H      175.290    -223.351    -117.035
  H      174.159    -218.916    -117.081
  H      173.615    -220.342    -116.168
  H      173.906    -220.461    -117.922
  H      179.578    -222.358    -108.370
  H      179.594    -221.084    -109.566
  H      181.072    -221.923    -109.163

 3  4  5  6  7  8  9  10  11  12  23  26  30  31 0
 6-311+G(2d,p)
 ****
 33  35  36  37  38 0
 6-311+G(2d,p)
 ****
 1  2  13  14  15  16  17  18  19  20  21  22  24  25 0
 3-21G
 ****
 27  28  29  32  34  39  40  41  42  43  44  45  46  47  48  49 0
 3-21G
 ****


