%nproc=1
%NoSave
%Mem=1900MB
#P OB98/GEN NMR

erre ene a

0 1
  C      119.451    -100.945    -676.589
  O      120.637    -101.315    -677.270
  H      119.708    -100.685    -675.560
  H      118.750    -101.780    -676.582
  H      118.996    -100.076    -677.071
  P      120.483    -101.718    -678.821
  C      123.003    -102.279    -679.141
  O      121.664    -102.755    -679.137
  C      123.970    -103.455    -679.217
  O      124.082    -104.081    -677.913
  C      123.518    -104.564    -680.157
  O      123.766    -104.253    -681.517
  C      124.337    -105.738    -679.645
  O      125.659    -105.734    -680.193
  C      124.388    -105.477    -678.135
  N      123.017    -110.291    -677.119
  C      124.059    -109.777    -677.809
  N      124.355    -108.476    -678.020
  C      123.471    -107.677    -677.409
  C      122.359    -108.061    -676.671
  C      122.139    -109.439    -676.525
  N      121.080    -109.966    -675.843
  N      121.667    -106.953    -676.233
  C      122.339    -105.921    -676.691
  N      123.443    -106.310    -677.406
  O      120.932    -100.383    -679.582
  O      119.117    -102.163    -679.225
  H      126.168    -106.406    -679.693
  H      120.137     -99.895    -679.871
  H      124.728    -110.498    -678.259
  H      122.074    -104.872    -676.546
  H      125.379    -105.666    -677.714
  H      123.866    -106.688    -679.912
  H      122.451    -104.779    -680.000
  H      124.964    -103.081    -679.504
  H      123.194    -101.717    -678.217
  H      123.141    -101.605    -679.995
  H      120.947    -110.966    -675.839
  H      120.359    -109.341    -675.497
  P      122.681    -104.722    -682.604
  C      124.233    -104.043    -684.585
  O      123.474    -105.064    -683.955
  O      121.881    -103.377    -682.956
  O      121.770    -105.809    -682.133
  H      120.940    -103.590    -683.122
  H      124.695    -104.435    -685.467
  H      124.988    -103.693    -683.912
  H      123.588    -103.232    -684.851

 6  7  8  9  10  11  12  13  14  15  25  28  32  33  34  35 0
 6-311+G(2d,p)
 ****
 36  37  40 0
 6-311+G(2d,p)
 ****
 1  2  3  4  5  16  17  18  19  20  21  22  23  24 0
 3-21G
 ****
 26  27  29  30  31  38  39 41  42  43  44  45  46  47  48 0
 3-21G
 ****


