%nproc=1
%NoSave
%Mem=1900MB
#P OB98/GEN NMR

erre ene a

0 1
  C      348.147    -656.112     578.512
  O      348.676    -655.155     577.583
  P      348.343    -655.223     576.013
  C      349.612    -657.406     575.549
  O      348.351    -656.756     575.502
  C      349.656    -658.715     574.722
  O      350.966    -659.341     574.806
  C      348.619    -659.771     575.146
  O      348.281    -660.493     573.957
  C      349.447    -660.651     576.086
  O      348.871    -661.938     576.292
  C      350.780    -660.667     575.351
  N      353.482    -664.521     577.376
  C      352.556    -664.489     576.387
  N      351.912    -663.418     575.883
  C      352.331    -662.291     576.466
  C      353.266    -662.162     577.475
  C      353.862    -663.350     577.950
  N      354.764    -663.385     578.980
  N      353.422    -660.837     577.840
  C      352.580    -660.176     577.071
  N      351.898    -661.012     576.223
  O      349.163    -654.292     575.170
  O      346.793    -654.814     575.917
  H      348.589    -662.284     575.428
  H      346.671    -654.173     575.194
  H      352.299    -665.463     575.959
  H      352.401    -659.097     577.105
  H      350.777    -661.374     574.519
  H      349.518    -660.158     577.061
  H      347.734    -659.351     575.622
  H      349.514    -658.434     573.677
  H      349.864    -657.638     576.597
  H      355.058    -664.305     579.308
  H      354.953    -662.540     579.499
  H      350.380    -656.714     575.167
  P      346.778    -660.520     573.404
  C      346.042    -662.812     574.277
  O      345.930    -661.416     574.435
  O      346.648    -660.929     571.974
  O      346.210    -659.038     573.651
  H      345.434    -658.885     573.081
  H      345.441    -663.144     573.420
  H      345.666    -663.310     575.178
  H      347.087    -663.117     574.130
  H      348.493    -655.881     579.498
  H      348.476    -657.093     578.239
  H      347.078    -656.075     578.492

 3  4  5  6  7  8  9  10  11  12  22  25  29  30  31  32 0
 6-311+G(2d,p)
 ****
 33  36  37 0
 6-311+G(2d,p)
 ****
 1  2  13  14  15  16  17  18  19  20  21  23  24  26 0
 3-21G
 ****
 27  28  34  35  38  39  40  41  42  43  44  45  46  47  48 0
 3-21G
 ****


