%nproc=1
%NoSave
%Mem=1900MB
#P OB98/GEN NMR

erre ene a

0 1
  C     -892.756     325.881    -892.823
  O     -892.288     325.822    -894.178
  P     -892.637     324.564    -895.107
  C     -890.137     324.074    -895.528
  O     -891.387     323.591    -895.007
  C     -889.088     322.978    -895.507
  O     -888.813     322.609    -894.141
  C     -889.489     321.656    -896.207
  O     -889.305     321.645    -897.620
  C     -888.527     320.687    -895.558
  O     -887.218     320.825    -896.191
  C     -888.451     321.188    -894.117
  N     -889.327     316.821    -891.578
  C     -888.284     317.240    -892.352
  N     -888.126     318.405    -893.012
  C     -889.175     319.212    -892.771
  C     -890.307     318.951    -892.006
  C     -890.367     317.668    -891.401
  N     -891.442     317.266    -890.603
  N     -891.201     319.994    -892.033
  C     -890.601     320.895    -892.759
  N     -889.384     320.474    -893.214
  O     -893.045     324.930    -896.514
  O     -893.800     323.786    -894.324
  H     -886.811     321.627    -895.808
  H     -894.266     323.170    -894.930
  H     -887.472     316.533    -892.458
  H     -891.000     321.887    -892.983
  H     -887.454     321.126    -893.677
  H     -888.831     319.645    -895.665
  H     -890.528     321.369    -895.920
  H     -888.166     323.369    -895.977
  H     -889.806     324.903    -894.870
  H     -891.298     316.383    -890.078
  H     -892.096     317.949    -890.329
  H     -890.289     324.474    -896.535
  P     -889.796     320.342    -898.410
  C     -887.391     319.393    -898.910
  O     -888.633     319.271    -898.230
  O     -890.224     320.587    -899.800
  O     -890.964     319.758    -897.474
  H     -890.696     319.437    -896.607
  H     -886.684     318.667    -898.540
  H     -886.974     320.403    -898.780
  H     -887.550     319.210    -900.000
  H     -892.423     326.791    -892.370
  H     -892.369     325.047    -892.275
  H     -893.825     325.849    -892.813

 3  4  5  6  7  8  9  10  11  12  22  25  29  30  31  32 0
 6-311+G(2d,p)
 ****
 33  36  37 0
 6-311+G(2d,p)
 ****
 1  2  13  14  15  16  17  18  19  20  21  23  24  26 0
 3-21G
 ****
 27  28  34  35  38  39  40  41  42  43  44  45  46  47  48 0
 3-21G
 ****


