%nproc=1
%NoSave
%Mem=1900MB
#P OB98/GEN NMR

erre ene a

0 1
  C      -75.175     196.948     362.756
  O      -75.557     196.292     361.562
  H      -75.059     196.199     363.542
  H      -75.951     197.659     363.055
  H      -74.225     197.469     362.614
  P      -75.617     197.183     360.231
  C      -75.257     196.717     357.672
  O      -75.419     196.187     358.983
  C      -74.768     195.617     356.727
  O      -73.426     195.210     357.047
  C      -75.570     194.330     356.815
  O      -76.859     194.447     356.261
  C      -74.651     193.382     356.054
  O      -74.793     193.555     354.637
  C      -73.255     193.862     356.529
  N      -72.667     192.971     357.519
  C      -72.023     191.834     357.010
  O      -71.971     191.644     355.795
  N      -71.483     190.933     357.892
  C      -71.555     191.155     359.168
  N      -71.011     190.220     359.995
  C      -72.202     192.352     359.748
  C      -72.734     193.207     358.875
  O      -74.225     197.972     360.274
  O      -76.822     198.055     360.103
  H      -74.563     194.486     354.450
  H      -73.452     197.392     360.375
  H      -72.229     192.504     360.819
  H      -73.228     194.109     359.211
  H      -72.565     193.935     355.679
  H      -74.873     192.339     356.273
  H      -75.616     193.985     357.858
  H      -74.769     196.022     355.704
  H      -70.593     189.404     359.561
  H      -74.559     197.560     357.675
  H      -71.031     190.271     361.001
  H      -76.227     197.093     357.342
  P      -77.973     193.320     356.535
  C      -80.511     193.122     356.156
  O      -79.387     194.000     356.209
  O      -77.888     192.662     357.868
  O      -77.786     192.315     355.301
  H      -77.923     192.721     354.425
  H      -81.393     193.685     355.932
  H      -80.628     192.636     357.102
  H      -80.354     192.387     355.394

 6  7  8  9  10  11  12  13  14  15  16  26  30  31  32  33  35 0
 6-311+G(2d,p)
 ****
 37  38 0
 6-311+G(2d,p)
 ****
 1  2  3  4  5  17  18  19  20  21  22  23  24  25 0
 3-21G
 ****
 27  28  29  34  36  39  40  41  42  43  44  45  46 0
 3-21G
 ****


