%nproc=1
%NoSave
%Mem=1900MB
#P OB98/GEN NMR

erre ene a

0 1
  C      -89.806     219.656    -423.498
  O      -89.539     220.617    -422.493
  H      -90.890     219.560    -423.607
  H      -89.393     218.684    -423.219
  H      -89.389     219.979    -424.455
  P      -88.009     220.938    -422.142
  C      -88.249     219.386    -420.087
  O      -87.494     219.707    -421.250
  C      -87.547     218.279    -419.296
  O      -87.231     217.170    -420.158
  C      -86.237     218.720    -418.650
  O      -86.490     219.417    -417.439
  C      -85.572     217.370    -418.436
  O      -86.159     216.712    -417.299
  C      -85.950     216.632    -419.732
  N      -82.547     214.300    -422.688
  C      -83.282     213.808    -421.622
  N      -83.045     212.530    -421.270
  N      -84.157     214.521    -420.952
  C      -84.234     215.806    -421.377
  C      -83.541     216.409    -422.405
  C      -82.620     215.600    -423.174
  O      -81.961     215.991    -424.129
  N      -83.841     217.748    -422.491
  C      -84.735     217.943    -421.538
  N      -84.999     216.796    -420.821
  O      -87.735     222.282    -421.532
  O      -87.242     220.740    -423.531
  H      -85.681     217.029    -416.509
  H      -87.170     221.579    -424.018
  H      -81.877     213.710    -423.142
  H      -85.224     218.886    -421.329
  H      -86.078     215.551    -419.576
  H      -84.501     217.443    -418.246
  H      -82.204     212.044    -421.553
  H      -85.619     219.309    -419.336
  H      -83.538     212.166    -420.464
  H      -88.255     217.914    -418.537
  H      -89.241     219.052    -420.421
  H      -88.367     220.271    -419.455
  P      -85.680     220.758    -417.070
  C      -84.019     219.485    -415.550
  O      -84.192     220.265    -416.731
  O      -86.316     221.604    -416.021
  O      -85.482     221.502    -418.473
  H      -86.231     222.110    -418.703
  H      -82.987     219.224    -415.443
  H      -84.607     218.594    -415.622
  H      -84.334     220.052    -414.699

 6  7  8  9  10  11  12  13  14  15  26  29  33  34 0
 6-311+G(2d,p)
 ****
 36  38  39  40  41 0
 6-311+G(2d,p)
 ****
 1  2  3  4  5  16  17  18  19  20  21  22  23  24  25 0
 3-21G
 ****
 27  28  30  31  32  35  37  42  43  44  45  46  47 0
 3-21G
 ****
 48  49 0
 3-21G
 ****


