%nproc=1
%NoSave
%Mem=1900MB
#P OB98/GEN NMR

erre ene a

0 1
  C     -212.725      33.812     217.432
  O     -214.067      33.476     217.808
  P     -214.468      32.045     218.413
  C     -215.242      29.730     217.575
  O     -214.804      31.038     217.213
  C     -215.971      29.037     216.416
  O     -217.119      29.806     216.007
  C     -215.136      28.853     215.156
  O     -214.208      27.790     215.305
  C     -216.224      28.612     214.115
  O     -216.656      27.239     214.128
  C     -217.349      29.541     214.607
  N     -217.430      30.777     213.840
  C     -217.939      30.674     212.542
  O     -218.239      29.575     212.075
  N     -218.068      31.820     211.793
  C     -217.658      32.953     212.272
  N     -217.819      34.057     211.489
  C     -217.032      33.093     213.603
  C     -216.954      31.974     214.324
  O     -215.527      32.108     219.469
  O     -213.108      31.456     219.025
  H     -216.860      27.023     215.061
  H     -213.323      30.887     219.788
  H     -216.680      34.046     213.951
  H     -216.519      31.987     215.316
  H     -218.321      29.033     214.553
  H     -215.890      28.834     213.098
  H     -214.609      29.787     214.920
  H     -216.329      28.065     216.781
  H     -218.256      33.928     210.586
  H     -215.927      29.821     218.428
  H     -217.534      34.982     211.767
  H     -214.375      29.140     217.884
  P     -212.641      28.110     215.399
  C     -210.836      29.114     213.878
  O     -212.171      28.657     213.969
  O     -211.794      27.021     215.975
  O     -212.579      29.427     216.315
  H     -211.748      29.417     216.828
  H     -210.523      29.073     212.831
  H     -210.162      28.492     214.476
  H     -210.781      30.152     214.224
  H     -212.700      34.814     217.056
  H     -212.388      33.138     216.673
  H     -212.085      33.735     218.286

 3  4  5  6  7  8  9  10  11  12  13  23  27  28  29  30  32 0
 6-311+G(2d,p)
 ****
 34  35 0
 6-311+G(2d,p)
 ****
 1  2  14  15  16  17  18  19  20  21  22  24  25  26 0
 3-21G
 ****
 31  33  36  37  38  39  40  41  42  43  44  45  46 0
 3-21G
 ****


