%nproc=1
%NoSave
%Mem=1900MB
#P OB98/GEN NMR

erre ene a

0 1
  C      144.974    -114.577    -124.239
  O      144.174    -113.801    -123.362
  P      142.578    -113.820    -123.477
  C      142.434    -115.626    -121.658
  O      142.072    -115.271    -122.989
  C      141.198    -115.878    -120.794
  O      140.455    -117.007    -121.338
  C      141.501    -116.202    -119.320
  O      140.430    -115.647    -118.545
  C      141.417    -117.722    -119.284
  O      141.194    -118.238    -117.980
  C      140.266    -117.951    -120.266
  N      138.146    -122.601    -119.868
  C      137.981    -121.471    -119.139
  N      138.603    -120.279    -119.297
  C      139.470    -120.323    -120.323
  C      139.769    -121.411    -121.133
  C      139.045    -122.596    -120.884
  N      139.174    -123.744    -121.637
  N      140.763    -121.079    -122.041
  C      141.052    -119.819    -121.780
  N      140.255    -119.303    -120.797
  O      142.032    -113.382    -124.800
  O      142.093    -112.848    -122.299
  H      141.957    -118.001    -117.420
  H      141.784    -111.999    -122.672
  H      137.248    -121.525    -118.337
  H      141.827    -119.235    -122.268
  H      139.290    -117.758    -119.807
  H      142.353    -118.149    -119.665
  H      142.466    -115.825    -118.971
  H      140.548    -114.997    -120.866
  H      143.010    -114.796    -121.235
  H      138.512    -124.489    -121.458
  H      139.633    -123.691    -122.546
  H      143.072    -116.519    -121.675
  P      140.657    -115.323    -116.985
  C      141.162    -112.899    -117.652
  O      141.604    -114.038    -116.922
  O      141.085    -116.485    -116.149
  O      139.226    -114.747    -116.519
  H      139.166    -114.788    -115.542
  H      141.424    -113.026    -118.712
  H      141.665    -112.007    -117.265
  H      140.080    -112.767    -117.557
  H      146.007    -114.429    -124.004
  H      144.792    -114.275    -125.249
  H      144.727    -115.612    -124.126

 3  4  5  6  7  8  9  10  11  12  22  25  29  30  31  32 0
 6-311+G(2d,p)
 ****
 33  36  37 0
 6-311+G(2d,p)
 ****
 1  2  13  14  15  16  17  18  19  20  21  23  24  26 0
 3-21G
 ****
 27  28  34  35  38  39  40  41  42  43  44  45  46  47  48 0
 3-21G
 ****


