%nproc=1
%NoSave
%Mem=1900MB
#P OB98/GEN NMR

erre ene a

0 1
  C      123.830     370.426    -103.423
  O      124.998     371.159    -103.734
  H      123.083     371.086    -102.971
  H      123.419     370.015    -104.350
  H      124.064     369.603    -102.744
  P      125.776     371.825    -102.497
  C      127.565     369.946    -102.497
  O      126.560     370.630    -101.765
  C      128.778     369.682    -101.610
  O      128.395     368.890    -100.464
  C      129.907     368.908    -102.283
  O      130.705     369.750    -103.099
  C      130.678     368.417    -101.066
  O      131.499     369.480    -100.547
  C      129.548     368.096    -100.077
  N      130.937     363.386     -98.626
  C      131.496     364.602     -98.415
  N      131.057     365.811     -98.816
  C      129.899     365.695     -99.489
  C      129.195     364.534     -99.763
  C      129.765     363.331     -99.305
  N      129.213     362.089     -99.587
  N      128.050     364.812    -100.489
  C      128.080     366.117    -100.665
  N      129.168     366.693    -100.075
  O      124.585     372.180    -101.480
  O      126.592     373.028    -102.834
  H      132.112     369.740    -101.261
  H      124.339     373.117    -101.591
  H      132.426     364.592     -97.855
  H      127.340     366.682    -101.215
  H      129.802     368.378     -99.049
  H      131.341     367.573    -101.289
  H      129.527     368.043    -102.839
  H      129.139     370.650    -101.237
  H      127.871     370.553    -103.353
  H      129.901     361.340     -99.632
  H      128.500     362.101    -100.308
  H      127.148     369.003    -102.863
  P      130.986     369.280    -104.609
  C      128.818     370.442    -105.410
  O      129.555     369.229    -105.343
  O      131.380     367.735    -104.431
  O      132.056     370.034    -105.323
  H      132.257     367.574    -104.830
  H      127.893     370.270    -105.919
  H      129.387     371.176    -105.942
  H      128.619     370.794    -104.419

 6  7  8  9  10  11  12  13  14  15  25  28  32  33  34  35 0
 6-311+G(2d,p)
 ****
 36  39  40 0
 6-311+G(2d,p)
 ****
 1  2  3  4  5  16  17  18  19  20  21  22  23  24 0
 3-21G
 ****
 26  27  29  30  31  37  38  41  42  43  44  45  46  47  48 0
 3-21G
 ****


