%nproc=1
%NoSave
%Mem=1900MB
#P OB98/GEN NMR

erre ene a

0 1
  C     -441.957     177.984    -292.746
  O     -441.207     178.408    -291.630
  H     -441.520     178.415    -293.653
  H     -442.990     178.339    -292.660
  H     -441.947     176.895    -292.834
  P     -441.576     177.770    -290.204
  C     -439.003     177.437    -290.043
  O     -440.213     177.727    -289.352
  C     -437.862     177.212    -289.045
  O     -437.478     178.494    -288.476
  C     -438.236     176.272    -287.896
  O     -437.098     175.458    -287.583
  C     -438.509     177.216    -286.735
  O     -438.316     176.598    -285.461
  C     -437.538     178.367    -287.041
  N     -437.971     179.615    -286.407
  C     -437.907     179.675    -285.016
  O     -437.497     178.697    -284.375
  N     -438.337     180.800    -284.370
  C     -438.888     181.762    -285.056
  N     -439.331     182.842    -284.361
  C     -439.043     181.719    -286.524
  C     -438.561     180.626    -287.133
  O     -441.845     176.227    -290.545
  O     -442.726     178.403    -289.501
  H     -439.029     175.942    -285.326
  H     -442.515     175.844    -289.949
  H     -439.529     182.526    -287.050
  H     -438.642     180.502    -288.208
  H     -436.525     178.132    -286.684
  H     -439.543     177.569    -286.787
  H     -439.094     175.636    -288.113
  H     -436.992     176.832    -289.593
  H     -439.219     182.827    -283.355
  H     -438.747     178.289    -290.686
  H     -439.815     183.621    -284.780
  H     -439.144     176.553    -290.670
  P     -436.970     174.068    -288.382
  C     -434.406     173.799    -288.697
  O     -435.575     173.395    -287.992
  O     -436.762     174.536    -289.901
  O     -438.166     173.187    -288.230
  H     -437.569     174.347    -290.423
  H     -433.560     173.261    -288.323
  H     -434.251     174.849    -288.559
  H     -434.528     173.590    -289.739

 6  7  8  9  10  11  12  13  14  15  16  26  30  31  32  33  35 0
 6-311+G(2d,p)
 ****
 37  38 0
 6-311+G(2d,p)
 ****
 1  2  3  4  5  17  18  19  20  21  22  23  24  25 0
 3-21G
 ****
 27  28  29  34  36  39  40  41  42  43  44  45  46 0
 3-21G
 ****


