%nproc=1
%NoSave
%Mem=1900MB
#P OB98/GEN NMR

erre ene a

0 1
  C      -42.124    -618.906     400.068
  O      -41.120    -618.274     400.837
  H      -41.809    -619.934     399.859
  H      -42.267    -618.376     399.121
  H      -43.064    -618.934     400.632
  P      -41.373    -616.742     401.234
  C      -39.209    -616.858     402.662
  O      -39.919    -616.186     401.627
  C      -37.722    -616.527     402.594
  O      -37.122    -617.147     401.445
  C      -37.424    -615.039     402.495
  O      -37.436    -614.437     403.772
  C      -36.014    -615.075     401.920
  O      -35.058    -615.317     402.976
  C      -36.056    -616.284     400.971
  N      -35.796    -618.015     396.140
  C      -35.308    -618.515     397.298
  N      -35.367    -617.976     398.541
  C      -36.017    -616.797     398.508
  C      -36.556    -616.163     397.404
  C      -36.431    -616.827     396.175
  N      -36.920    -616.315     394.993
  N      -37.145    -614.965     397.764
  C      -37.009    -614.904     399.078
  N      -36.296    -615.978     399.567
  O      -42.461    -616.499     402.227
  O      -41.614    -616.084     399.790
  H      -35.176    -616.253     403.246
  H      -40.995    -616.464     399.139
  H      -34.802    -619.477     397.228
  H      -37.419    -614.132     399.710
  H      -35.133    -616.865     401.013
  H      -35.727    -614.138     401.442
  H      -38.089    -614.531     401.782
  H      -37.245    -616.963     403.492
  H      -39.357    -617.938     402.569
  H      -36.622    -616.750     394.137
  H      -37.284    -615.372     395.002
  H      -39.642    -616.539     403.618
  P      -37.672    -612.856     403.945
  C      -35.722    -612.811     405.617
  O      -36.253    -612.271     404.419
  O      -38.844    -612.490     404.797
  O      -37.798    -612.315     402.449
  H      -38.204    -611.428     402.447
  H      -34.781    -612.348     405.831
  H      -35.583    -613.866     405.502
  H      -36.401    -612.627     406.423

 6  7  8  9  10  11  12  13  14  15  25  28  32  33  34  35 0
 6-311+G(2d,p)
 ****
 36  39  40 0
 6-311+G(2d,p)
 ****
 1  2  3  4  5  16  17  18  19  20  21  22  23  24 0
 3-21G
 ****
 26  27  29  30  31  37  38  41  42  43  44  45  46  47 0
 3-21G
 ****
 48 0
 3-21G
 ****


