%nproc=1
%NoSave
%Mem=1900MB
#P OB98/GEN NMR

erre ene a

0 1
  C       -7.760     471.383    -687.946
  O       -8.575     470.930    -689.036
  P      -10.158     470.838    -688.765
  C      -10.402     471.247    -691.323
  O      -10.873     470.557    -690.173
  C      -11.287     470.951    -692.530
  O      -11.074     469.609    -693.018
  C      -12.781     471.040    -692.244
  O      -13.235     472.387    -692.243
  C      -13.350     470.279    -693.432
  O      -13.442     471.151    -694.576
  C      -12.291     469.185    -693.668
  N      -14.490     464.737    -694.681
  C      -14.289     465.824    -695.495
  N      -14.699     465.691    -696.786
  N      -13.716     466.932    -695.102
  C      -13.329     466.906    -693.802
  C      -13.487     465.888    -692.892
  C      -14.132     464.675    -693.339
  O      -14.376     463.690    -692.638
  N      -12.953     466.221    -691.675
  C      -12.458     467.430    -691.848
  N      -12.672     467.899    -693.129
  O      -10.556     472.358    -688.444
  O      -10.529     469.914    -687.651
  H      -13.602     470.580    -695.360
  H      -11.344     472.386    -687.870
  H      -14.934     463.903    -695.035
  H      -11.941     468.008    -691.099
  H      -12.067     469.064    -694.734
  H      -14.360     469.894    -693.245
  H      -15.072     464.847    -697.172
  H      -13.028     470.520    -691.315
  H      -14.520     466.477    -697.404
  H      -11.019     471.658    -693.330
  H       -9.377     470.946    -691.542
  H      -10.371     472.321    -691.105
  P      -13.640     473.018    -690.818
  C      -13.404     475.578    -691.217
  O      -14.254     474.454    -691.159
  O      -12.217     473.359    -690.166
  O      -14.460     472.128    -689.956
  H      -12.273     473.325    -689.196
  H      -12.471     475.336    -691.740
  H      -13.164     475.909    -690.199
  H      -13.904     476.386    -691.749
  H       -6.734     471.400    -688.251
  H       -7.874     470.719    -687.115
  H       -8.063     472.368    -687.659

 3  4  5  6  7  8  9  10  11  12  23  26  30  31  33  0
 6-311+G(2d,p)
 ****
 35  36  37  38 0
 6-311+G(2d,p)
 ****
 1  2  13  14  15  16  17  18  19  20  21  22  24  25  27  28  29 0
 3-21G
 ****
 32  34  39  40  41  42  43  44  45  46  47  48  49 0
 3-21G
 ****


