%nproc=1
%NoSave
%Mem=1900MB
#P OB98/GEN NMR

erre ene a

0 1
  C      800.122     225.027     350.909
  O      799.699     225.250     352.238
  P      798.322     224.602     352.759
  C      795.867     224.562     352.005
  O      797.118     225.238     351.903
  C      794.800     225.303     351.200
  O      795.159     225.349     349.789
  C      793.432     224.630     351.227
  O      792.790     224.814     352.471
  C      792.747     225.321     350.046
  O      792.257     226.617     350.425
  C      793.916     225.459     349.046
  N      793.854     224.459     347.985
  C      793.178     224.854     346.823
  O      792.603     225.945     346.772
  N      793.154     223.985     345.750
  C      793.653     222.792     345.876
  N      793.658     221.993     344.774
  C      794.229     222.288     347.144
  C      794.316     223.178     348.142
  O      798.120     224.644     354.236
  O      798.380     223.099     352.237
  H      798.167     222.488     352.990
  H      791.939     227.046     349.617
  H      794.579     221.256     347.218
  H      794.746     222.898     349.086
  H      793.919     226.457     348.607
  H      791.892     224.737     349.679
  H      793.533     223.558     351.024
  H      794.737     226.339     351.572
  H      793.268     222.384     343.922
  H      795.580     224.528     353.056
  H      794.301     221.203     344.664
  H      795.974     223.534     351.651
  P      791.334     224.139     352.653
  C      789.202     224.067     351.183
  O      790.373     224.755     351.520
  O      790.780     224.778     354.011
  O      791.346     222.641     352.721
  H      790.266     224.128     354.498
  H      788.526     224.761     350.681
  H      788.714     223.655     352.066
  H      789.449     223.250     350.473
  H      801.051     225.531     350.741
  H      799.384     225.404     350.232
  H      800.251     223.977     350.747

 3  4  5  6  7  8  9  10  11  12  13  24  27  28  29  30  32 0
 6-311+G(2d,p)
 ****
 34  35 0
 6-311+G(2d,p)
 ****
 1  2  14  15  16  17  18  19  20  21  22  23  25  26 0
 3-21G
 ****
 31  33  36  37  38  39  40  41  42  43  44  45  46 0
 3-21G
 ****


