%nproc=1
%NoSave
%Mem=1900MB
#P OB98/GEN NMR

erre ene a

0 1
  C       76.295      66.126     231.280
  O       77.201      65.449     230.429
  H       76.614      67.167     231.373
  H       76.298      65.666     232.273
  H       75.289      66.099     230.855
  P       76.891      63.900     230.142
  C       76.907      61.795     231.653
  O       76.928      63.215     231.593
  C       77.251      61.312     233.060
  O       76.115      61.452     233.935
  C       77.657      59.847     233.140
  O       79.014      59.678     232.768
  C       77.440      59.571     234.622
  O       78.558      60.077     235.378
  C       76.179      60.398     234.934
  N       72.377      58.455     237.783
  C       73.563      58.999     238.125
  N       74.543      59.456     237.314
  C       74.203      59.306     236.024
  C       73.024      58.767     235.524
  C       72.077      58.336     236.470
  N       70.861      57.789     236.117
  N       73.028      58.774     234.145
  C       74.164      59.359     233.818
  N       74.925      59.663     234.917
  O       77.720      63.257     229.085
  O       75.319      63.956     229.832
  H       78.330      60.000     236.325
  H       74.877      64.594     230.418
  H       73.755      59.082     239.192
  H       74.474      59.594     232.807
  H       76.244      60.880     235.917
  H       77.365      58.504     234.840
  H       76.984      59.211     232.555
  H       78.044      61.962     233.453
  H       77.612      61.372     230.931
  H       70.318      57.352     236.848
  H       70.696      57.589     235.142
  H       75.897      61.472     231.379
  P       79.490      58.365     231.979
  C       79.175      55.833     232.311
  O       79.162      57.114     232.931
  O       80.889      58.404     231.471
  O       78.431      58.205     230.792
  H       78.875      57.894     229.978
  H       78.944      55.083     233.038
  H       80.145      55.645     231.900
  H       78.446      55.808     231.529

 6  7  8  9  10  11  12  13  14  15  25  28  32  33  34  35 0
 6-311+G(2d,p)
 ****
 36  39  40 0
 6-311+G(2d,p)
 ****
 1  2  3  4  5  16  17  18  19  20  21  22  23  24 0
 3-21G
 ****
 26  27  29  30  31  37  38  41  42  43  44  45  46  47 0
 3-21G
 ****
 48 0
 3-21G
 ****


