%nproc=1
%NoSave
%Mem=1900MB
#P OB98/GEN NMR

erre ene a

0 1
  C      982.457    -899.179     -53.856
  O      982.191    -898.269     -52.780
  P      981.331    -896.959     -53.087
  C      982.664    -895.229     -51.668
  O      981.461    -895.949     -51.836
  C      982.639    -894.449     -50.353
  O      982.571    -895.319     -49.201
  C      983.863    -893.569     -50.126
  O      983.762    -892.329     -50.822
  C      983.793    -893.339     -48.625
  O      982.839    -892.309     -48.339
  C      983.286    -894.699     -48.112
  N      987.060    -895.369     -44.722
  C      986.207    -894.359     -44.921
  N      985.242    -894.229     -45.856
  C      985.196    -895.339     -46.627
  C      986.002    -896.449     -46.549
  C      986.978    -896.459     -45.544
  N      987.847    -897.509     -45.338
  N      985.663    -897.379     -47.503
  C      984.656    -896.839     -48.168
  N      984.340    -895.589     -47.669
  O      979.833    -897.489     -52.991
  O      981.617    -896.349     -54.425
  H      981.972    -892.599     -48.716
  H      979.269    -896.999     -53.633
  H      986.316    -893.499     -44.242
  H      984.129    -897.279     -48.990
  H      982.568    -894.589     -47.286
  H      984.743    -893.019     -48.200
  H      984.785    -894.129     -50.377
  H      981.734    -893.819     -50.355
  H      982.807    -894.539     -52.500
  H      988.506    -897.449     -44.572
  H      987.774    -898.329     -45.931
  H      983.506    -895.919     -51.686
  P      985.041    -891.879     -51.685
  C      985.465    -889.589     -50.526
  O      985.013    -890.279     -51.669
  O      984.612    -892.249     -53.175
  O      986.329    -892.519     -51.275
  H      985.415    -892.479     -53.706
  H      985.657    -888.539     -50.795
  H      986.390    -890.039     -50.141
  H      984.690    -889.609     -49.745
  H      983.040    -900.000     -53.493
  H      982.998    -898.671     -54.627
  H      981.532    -899.545     -54.250

 3  4  5  6  7  8  9  10  11  12  22  25  29  30  31  32 0
 6-311+G(2d,p)
 ****
 33  36  37 0
 6-311+G(2d,p)
 ****
 1  2  13  14  15  16  17  18  19  20  21  23  24  26 0
 3-21G
 ****
 27  28  34  35  38  39  40  41  42  43  44  45  46  47  48 0
 3-21G
 ****


