%nproc=1
%NoSave
%Mem=1900MB
#P OB98/GEN NMR

erre ene a

0 1
  C      -21.573     809.316    1477.858
  O      -22.670     809.899    1478.521
  H      -20.827     809.027    1478.601
  H      -21.131     810.037    1477.170
  H      -21.887     808.416    1477.312
  P      -23.971     810.256    1477.635
  C      -22.791     812.497    1477.036
  O      -23.505     811.356    1476.566
  C      -22.119     813.221    1475.871
  O      -23.087     813.436    1474.815
  C      -21.532     814.586    1476.261
  O      -20.290     814.764    1475.563
  C      -22.554     815.581    1475.736
  O      -21.985     816.859    1475.472
  C      -23.097     814.838    1474.499
  N      -24.431     815.303    1474.143
  C      -24.506     816.504    1473.407
  O      -23.461     817.104    1473.105
  N      -25.736     817.001    1473.084
  C      -26.805     816.427    1473.535
  N      -28.004     816.991    1473.217
  C      -26.775     815.213    1474.371
  C      -25.571     814.703    1474.623
  O      -24.893     811.090    1478.648
  O      -24.683     809.082    1477.050
  H      -21.214     816.732    1474.888
  H      -25.833     810.943    1478.462
  H      -27.699     814.784    1474.740
  H      -25.441     813.818    1475.238
  H      -22.422     814.990    1473.633
  H      -23.348     815.711    1476.474
  H      -21.353     814.700    1477.332
  H      -21.319     812.557    1475.459
  H      -27.975     817.843    1472.651
  H      -22.034     812.164    1477.745
  H      -28.888     816.657    1473.541
  H      -23.491     813.163    1477.554
  P      -18.952     814.352    1476.339
  C      -18.411     816.783    1477.067
  O      -18.670     815.452    1477.474
  O      -17.790     814.606    1475.260
  O      -18.948     812.910    1476.800
  H      -17.437     813.753    1474.919
  H      -18.244     817.394    1477.930
  H      -19.251     817.159    1476.521
  H      -17.542     816.802    1476.442

 6  7  8  9  10  11  12  13  14  15  16  26  30  31  32  33  35 0
 6-311+G(2d,p)
 ****
 37  38 0
 6-311+G(2d,p)
 ****
 1  2  3  4  5  17  18  19  20  21  22  23  24  25 0
 3-21G
 ****
 27  28  29  34  36  39  40  41  42  43  44  45  46 0
 3-21G
 ****


