%nproc=1
%NoSave
%Mem=1900MB
#P OB98/GEN NMR

erre ene a

0 1
  C      436.600     -61.634     -47.254
  O      435.823     -62.687     -46.668
  P      435.877     -63.013     -45.098
  C      435.654     -61.198     -43.282
  O      434.992     -61.926     -44.316
  C      434.709     -60.199     -42.600
  O      434.140     -59.291     -43.564
  C      433.530     -60.839     -41.876
  O      433.937     -61.360     -40.623
  C      432.556     -59.667     -41.802
  O      432.897     -58.798     -40.706
  C      432.800     -58.966     -43.141
  N      428.942     -57.283     -46.044
  C      429.730     -56.661     -45.141
  N      430.734     -57.180     -44.401
  C      430.915     -58.479     -44.694
  C      430.186     -59.248     -45.591
  C      429.154     -58.597     -46.287
  N      428.343     -59.238     -47.198
  N      430.642     -60.550     -45.602
  C      431.642     -60.561     -44.738
  N      431.844     -59.334     -44.165
  O      437.259     -63.183     -44.555
  O      435.033     -64.364     -44.933
  H      433.859     -58.652     -40.736
  H      435.358     -64.863     -44.161
  H      429.520     -55.603     -44.985
  H      432.248     -61.429     -44.498
  H      432.766     -57.875     -43.037
  H      431.519     -59.990     -41.653
  H      433.099     -61.634     -42.492
  H      435.308     -59.599     -41.903
  H      436.497     -60.654     -43.728
  H      427.601     -58.710     -47.629
  H      428.463     -60.228     -47.349
  H      436.037     -61.910     -42.547
  P      433.884     -62.940     -40.353
  C      435.125     -64.875     -41.494
  O      435.228     -63.568     -40.954
  O      432.624     -63.623     -40.767
  O      434.119     -63.059     -38.772
  H      433.663     -63.857     -38.438
  H      435.150     -65.604     -40.679
  H      435.979     -65.050     -42.153
  H      434.205     -64.989     -42.069
  H      436.411     -61.594     -48.306
  H      437.640     -61.822     -47.085
  H      436.329     -60.700     -46.807

 3  4  5  6  7  8  9  10  11  12  22  25  29  30  31  32 0
 6-311+G(2d,p)
 ****
 33  36  37 0
 6-311+G(2d,p)
 ****
 1  2  13  14  15  16  17  18  19  20  21  23  24  26 0
 3-21G
 ****
 27  28  34  35  38  39  40  41  42  43  44  45  46  47  48 0
 3-21G
 ****


