%nproc=1
%NoSave
%Mem=1900MB
#P OB98/GEN NMR

erre ene a

0 1
  C      445.913     499.997    -502.397
  O      444.726     500.612    -502.864
  H      446.642     500.781    -502.176
  H      446.319     499.345    -503.171
  H      445.727     499.428    -501.487
  P      443.386     499.740    -502.953
  C      443.797     498.851    -505.345
  O      442.982     499.656    -504.502
  C      443.072     498.507    -506.650
  O      441.828     497.815    -506.336
  C      442.675     499.778    -507.424
  O      442.597     499.545    -508.832
  C      441.288     500.083    -506.902
  O      440.507     500.885    -507.790
  C      440.731     498.679    -506.679
  N      435.755     498.958    -505.581
  C      436.416     499.289    -506.749
  N      435.634     499.740    -507.767
  N      437.702     499.189    -506.909
  C      438.363     498.788    -505.789
  C      437.830     498.451    -504.559
  C      436.381     498.531    -504.409
  O      435.759     498.285    -503.395
  N      438.812     498.105    -503.672
  C      439.930     498.224    -504.349
  N      439.707     498.611    -505.642
  O      442.268     500.715    -502.355
  O      443.429     498.426    -502.234
  H      441.004     501.698    -507.964
  H      441.503     500.191    -502.039
  H      434.754     499.019    -505.526
  H      440.914     498.022    -503.953
  H      440.283     498.289    -507.603
  H      441.388     500.652    -505.966
  H      434.670     500.015    -507.611
  H      443.358     500.614    -507.245
  H      436.114     500.265    -508.503
  H      443.670     497.827    -507.255
  H      444.042     497.937    -504.787
  H      444.747     499.355    -505.556
  P      443.899     499.835    -509.729
  C      443.321     502.142    -510.889
  O      443.507     500.742    -510.983
  O      444.223     498.408    -510.381
  O      445.067     500.380    -508.968
  H      445.084     498.079    -510.065
  H      443.065     502.533    -511.851
  H      444.226     502.600    -510.547
  H      442.532     502.351    -510.197

 6  7  8  9  10  11  12  13  14  15  26  29  33  34 0
 6-311+G(2d,p)
 ****
 36  38  39  40  41 0
 6-311+G(2d,p)
 ****
 1  2  3  4  5  16  17  18  19  20  21  22  23  24  25 0
 3-21G
 ****
 27  28  30  31  32  35  37  42  43  44  45  46  47 0
 3-21G
 ****
 48  49 0
 3-21G
 ****


