%nproc=1
%NoSave
%Mem=1900MB
#P OB98/GEN NMR

erre ene a

0 1
  C     -209.716     347.159     113.395
  O     -210.595     346.387     114.185
  H     -209.751     348.196     113.741
  H     -210.035     347.125     112.348
  H     -208.689     346.798     113.477
  P     -210.477     344.791     114.136
  C     -211.517     344.108     111.875
  O     -210.323     344.374     112.594
  C     -211.232     343.292     110.608
  O     -210.084     343.849     109.921
  C     -210.870     341.849     110.970
  O     -211.225     340.929     109.938
  C     -209.354     341.898     111.099
  O     -208.740     340.625     110.945
  C     -209.006     342.899     109.991
  N     -203.991     343.061     109.072
  C     -204.909     342.082     108.745
  N     -204.424     340.992     108.111
  N     -206.184     342.154     109.036
  C     -206.515     343.268     109.738
  C     -205.692     344.298     110.139
  C     -204.287     344.218     109.783
  O     -203.429     345.052     110.062
  N     -206.383     345.245     110.851
  C     -207.621     344.790     110.887
  N     -207.758     343.596     110.209
  O     -211.960     344.288     114.483
  O     -209.463     344.186     115.058
  H     -208.876     340.128     111.773
  H     -211.936     343.390     114.860
  H     -203.025     342.962     108.817
  H     -208.455     345.278     111.376
  H     -208.934     342.394     109.021
  H     -209.105     342.266     112.097
  H     -203.436     340.808     108.029
  H     -211.342     341.531     111.906
  H     -205.011     340.148     108.129
  H     -212.079     343.354     109.916
  H     -211.956     345.076     111.604
  H     -212.238     343.590     112.513
  P     -212.373     339.861     110.261
  C     -210.904     337.748     110.770
  O     -211.760     338.762     111.261
  O     -212.558     339.076     108.877
  O     -213.652     340.474     110.732
  H     -213.381     339.362     108.436
  H     -210.599     337.116     111.578
  H     -210.041     338.195     110.322
  H     -211.424     337.166     110.038

 6  7  8  9  10  11  12  13  14  15  26  29  33  34 0
 6-311+G(2d,p)
 ****
 36  38  39  40  41 0
 6-311+G(2d,p)
 ****
 1  2  3  4  5  16  17  18  19  20  21  22  23  24  25 0
 3-21G
 ****
 27  28  30  31  32  35  37  42  43  44  45  46  47 0
 3-21G
 ****
 48  49 0
 3-21G
 ****


