%nproc=1
%NoSave
%Mem=1900MB
#P OB98/GEN NMR

erre ene a

0 1
  C      229.990    -240.285      75.954
  O      230.754    -241.340      76.555
  P      231.122    -242.598      75.633
  C      233.071    -244.330      75.489
  O      232.412    -243.325      76.253
  C      234.513    -244.502      75.969
  O      235.377    -243.519      75.366
  C      234.672    -244.312      77.469
  O      234.247    -245.465      78.165
  C      236.170    -244.028      77.593
  O      236.921    -245.242      77.777
  C      236.513    -243.363      76.241
  N      236.887    -241.965      76.383
  C      237.838    -241.684      77.369
  O      238.297    -242.589      78.068
  N      238.231    -240.381      77.549
  C      237.694    -239.437      76.826
  N      238.119    -238.164      77.055
  C      236.664    -239.694      75.796
  C      236.313    -240.964      75.631
  O      231.688    -241.924      74.296
  O      229.963    -243.503      75.354
  H      236.521    -245.683      78.546
  H      231.469    -242.476      73.524
  H      236.238    -238.874      75.228
  H      235.558    -241.240      74.899
  H      237.352    -243.889      75.763
  H      236.384    -243.395      78.465
  H      234.103    -243.430      77.803
  H      234.863    -245.504      75.678
  H      238.822    -238.026      77.767
  H      233.056    -244.066      74.427
  H      237.763    -237.356      76.556
  H      232.506    -245.272      75.586
  P      232.973    -245.336      79.119
  C      231.701    -246.954      80.664
  O      232.862    -246.751      79.875
  O      231.756    -245.423      78.076
  O      232.877    -244.116      79.983
  H      230.906    -245.257      78.530
  H      231.652    -248.018      80.946
  H      230.810    -246.698      80.097
  H      231.755    -246.352      81.573
  H      229.817    -239.514      76.676
  H      229.052    -240.673      75.614
  H      230.531    -239.881      75.124

 3  4  5  6  7  8  9  10  11  12  13  21  23  27  28  29  30  32 0
 6-311+G(2d,p)
 ****
 34  35 0
 6-311+G(2d,p)
 ****
 1  2  14  15  16  17  18  19  20  22  24  25  26 0
 3-21G
 ****
 31  33  36  37  38  39  40  41  42  43  44  45  46 0
 3-21G
 ****


