%nproc=1
%NoSave
%Mem=1900MB
#P OB98/GEN NMR

erre ene a

0 1
  C     1219.234     -27.867     287.485
  O     1219.601     -26.505     287.346
  P     1219.570     -25.579     288.669
  C     1217.637     -24.121     287.702
  O     1218.984     -24.172     288.201
  C     1216.995     -22.779     287.980
  O     1216.961     -22.519     289.399
  C     1217.761     -21.589     287.382
  O     1217.441     -21.412     285.991
  C     1217.195     -20.451     288.206
  O     1215.894     -20.052     287.713
  C     1217.080     -21.090     289.604
  N     1219.315     -22.299     294.036
  C     1218.163     -22.678     293.489
  N     1217.616     -22.324     292.302
  C     1218.411     -21.413     291.695
  C     1219.610     -20.886     292.130
  C     1220.084     -21.381     293.382
  N     1221.293     -20.995     293.927
  N     1220.120     -19.991     291.243
  C     1219.264     -19.962     290.240
  N     1218.219     -20.824     290.467
  O     1221.125     -25.281     288.928
  O     1218.914     -26.209     289.859
  H     1216.022     -19.704     286.812
  H     1221.272     -25.044     289.862
  H     1217.576     -23.398     294.063
  H     1219.355     -19.357     289.352
  H     1216.185     -20.767     290.138
  H     1217.820     -19.545     288.173
  H     1218.821     -21.687     287.547
  H     1215.966     -22.804     287.615
  H     1217.050     -24.904     288.200
  H     1221.637     -21.530     294.706
  H     1221.936     -20.472     293.343
  H     1217.663     -24.344     286.625
  P     1218.590     -21.845     284.934
  C     1218.190     -19.950     283.182
  O     1218.055     -21.323     283.525
  O     1218.396     -23.421     284.867
  O     1219.950     -21.422     285.331
  H     1219.241     -23.835     284.593
  H     1218.078     -19.841     282.102
  H     1219.196     -19.572     283.483
  H     1217.440     -19.353     283.705
  H     1219.301     -28.353     286.534
  H     1218.229     -27.930     287.848
  H     1219.895     -28.345     288.178

 3  4  5  6  7  8  9  10  11  12  22  25  29  30  31  32 0
 6-311+G(2d,p)
 ****
 33  36  37 0
 6-311+G(2d,p)
 ****
 1  2  13  14  15  16  17  18  19  20  21  23  24  26 0
 3-21G
 ****
 27  28  34  35  38  39  40  41  42  43  44  45  46  47  48 0
 3-21G
 ****


