%nproc=1
%NoSave
%Mem=1900MB
#P OB98/GEN NMR

erre ene a

0 1
  C       48.535    -268.475     -13.243
  O       49.880    -268.526     -12.795
  P       50.526    -267.175     -12.215
  C       50.879    -264.816     -13.252
  O       50.774    -266.215     -13.475
  C       50.563    -264.051     -14.533
  O       49.267    -264.419     -15.044
  C       50.513    -262.539     -14.362
  O       51.803    -261.950     -14.368
  C       49.736    -262.130     -15.601
  O       50.612    -262.105     -16.746
  C       48.719    -263.271     -15.733
  N       44.291    -260.981     -16.608
  C       45.307    -261.301     -17.484
  N       45.145    -260.900     -18.765
  N       46.385    -261.955     -17.141
  C       46.414    -262.285     -15.827
  C       45.467    -262.027     -14.862
  C       44.286    -261.287     -15.255
  O       43.377    -260.929     -14.513
  N       45.846    -262.523     -13.643
  C       47.017    -263.087     -13.866
  N       47.427    -262.930     -15.165
  O       52.005    -267.623     -11.797
  O       49.779    -266.567     -11.077
  H       50.144    -261.605     -17.444
  H       52.394    -266.965     -11.191
  H       43.483    -260.468     -16.922
  H       47.610    -263.598     -13.118
  H       48.561    -263.560     -16.777
  H       49.294    -261.133     -15.519
  H       44.369    -260.338     -19.079
  H       49.943    -262.260     -13.467
  H       45.903    -261.065     -19.416
  H       51.315    -264.327     -15.285
  H       51.893    -264.579     -12.922
  H       50.184    -264.525     -12.457
  P       51.926    -260.471     -13.753
  C       50.076    -258.648     -13.824
  O       50.849    -259.591     -14.545
  O       53.333    -259.962     -14.320
  O       51.861    -260.414     -12.263
  H       53.715    -259.290     -13.725
  H       49.603    -257.966     -14.535
  H       50.703    -258.064     -13.145
  H       49.298    -259.162     -13.258
  H       48.241    -269.440     -13.600
  H       48.450    -267.761     -14.035
  H       47.900    -268.186     -12.432

 3  4  5  6  7  8  9  10  11  12  23  26  30  31 0
 6-311+G(2d,p)
 ****
 33  35  36  37  38 0
 6-311+G(2d,p)
 ****
 1  2  13  14  15  16  17  18  19  20  21  22  24  25 0
 3-21G
 ****
 27  28  29  32  34  39  40  41  42  43  44  45  46  47  48  49 0
 3-21G
 ****


