%nproc=1
%NoSave
%Mem=1900MB
#P OB98/GEN NMR

erre ene a

0 1
  C     -293.562       2.879    -160.969
  O     -292.834       3.322    -159.823
  P     -293.711       3.618    -158.507
  C     -292.655       5.949    -158.089
  O     -292.874       4.639    -157.590
  C     -291.881       6.805    -157.074
  O     -292.741       7.174    -155.953
  C     -290.653       6.093    -156.482
  O     -289.650       7.100    -156.274
  C     -291.189       5.584    -155.157
  O     -290.171       5.210    -154.242
  C     -292.053       6.777    -154.748
  N     -292.798       6.864    -149.702
  C     -291.744       7.221    -150.465
  N     -291.618       7.161    -151.812
  C     -292.746       6.687    -152.364
  C     -293.902       6.278    -151.716
  C     -293.906       6.385    -150.317
  N     -294.967       6.003    -149.525
  N     -294.840       5.818    -152.630
  C     -294.221       5.890    -153.797
  N     -292.991       6.473    -153.695
  O     -293.654       2.239    -157.698
  O     -295.108       4.048    -158.808
  H     -290.570       4.989    -153.375
  H     -294.471       1.727    -157.847
  H     -290.875       7.598    -149.930
  H     -294.614       5.520    -154.739
  H     -291.448       7.624    -154.412
  H     -291.813       4.698    -155.334
  H     -290.243       5.312    -157.127
  H     -291.570       7.732    -157.572
  H     -293.608       6.436    -158.309
  H     -294.872       6.116    -148.529
  H     -295.809       5.628    -149.945
  H     -292.115       5.887    -159.041
  P     -288.532       7.321    -157.399
  C     -286.491       6.231    -156.287
  O     -287.155       7.447    -156.575
  O     -288.799       8.859    -157.781
  O     -288.558       6.385    -158.555
  H     -288.851       9.415    -156.989
  H     -285.539       6.459    -155.801
  H     -286.299       5.674    -157.210
  H     -287.101       5.628    -155.603
  H     -292.884       2.714    -161.780
  H     -294.277       3.625    -161.248
  H     -294.071       1.967    -160.738

 3  4  5  6  7  8  9  10  11  12  22  25  29  30  31  32 0
 6-311+G(2d,p)
 ****
 33  36  37 0
 6-311+G(2d,p)
 ****
 1  2  13  14  15  16  17  18  19  20  21  23  24  26 0
 3-21G
 ****
 27  28  34  35  38  39  40  41  42  43  44  45  46  47  48 0
 3-21G
 ****


