%nproc=1
%NoSave
%Mem=1900MB
#P OB98/GEN NMR

erre ene a

0 1
  C      385.335     148.989     -90.242
  O      384.866     149.349     -91.525
  H      384.675     148.223     -89.830
  H      385.318     149.861     -89.582
  H      386.349     148.588     -90.305
  P      385.748     150.407     -92.353
  C      385.984     149.210     -94.641
  O      385.336     150.229     -93.895
  C      385.084     148.699     -95.769
  O      384.090     147.790     -95.195
  C      384.322     149.800     -96.520
  O      384.211     149.411     -97.890
  C      382.933     149.739     -95.895
  O      381.927     150.307     -96.732
  C      382.806     148.232     -95.678
  N      377.965     146.874     -95.363
  C      378.768     147.083     -96.467
  N      378.200     146.903     -97.677
  N      380.026     147.438     -96.394
  C      380.474     147.546     -95.120
  C      379.780     147.377     -93.942
  C      378.386     147.012     -94.044
  O      377.617     146.829     -93.101
  N      380.587     147.610     -92.857
  C      381.765     147.924     -93.373
  N      381.747     147.898     -94.743
  O      387.215     149.769     -92.278
  O      385.716     151.806     -91.840
  H      381.065     150.188     -96.283
  H      387.709     150.147     -91.526
  H      377.000     146.614     -95.476
  H      382.650     148.174     -92.807
  H      382.581     147.693     -96.608
  H      382.925     150.274     -94.935
  H      377.251     146.587     -97.815
  H      384.775     150.794     -96.450
  H      378.785     147.008     -98.496
  H      385.689     148.103     -96.459
  H      386.231     148.378     -93.973
  H      386.916     149.610     -95.065
  P      384.782     150.409     -99.007
  C      387.239     149.752     -99.535
  O      385.865     149.618     -99.879
  O      385.675     151.423     -98.154
  O      383.721     151.123     -99.786
  H      385.713     152.293     -98.600
  H      387.833     149.167    -100.206
  H      387.391     149.409     -98.533
  H      387.526     150.780     -99.608

 6  7  8  9  10  11  12  13  14  15  26  29  33  34 0
 6-311+G(2d,p)
 ****
 36  38  39  40  41 0
 6-311+G(2d,p)
 ****
 1  2  3  4  5  16  17  18  19  20  21  22  23  24  25 0
 3-21G
 ****
 27  28  30  31  32  35  37  42  43  44  45  46  47 0
 3-21G
 ****
 48  49 0
 3-21G
 ****


