%nproc=1
%NoSave
%Mem=1900MB
#P OB98/GEN NMR

erre ene a

0 1
  C     -244.989     403.119    -512.129
  O     -245.328     403.664    -513.388
  H     -245.324     403.810    -511.346
  H     -243.904     402.995    -512.047
  H     -245.486     402.155    -511.987
  P     -244.820     402.852    -514.676
  C     -242.383     402.010    -515.080
  O     -243.225     403.069    -514.654
  C     -241.009     402.146    -514.430
  O     -241.121     402.093    -512.992
  C     -240.022     401.042    -514.804
  O     -239.447     401.212    -516.088
  C     -238.991     401.233    -513.690
  O     -238.196     402.390    -513.970
  C     -239.915     401.451    -512.470
  N     -240.254     400.212    -511.775
  C     -239.177     399.446    -511.297
  O     -238.017     399.824    -511.467
  N     -239.446     398.259    -510.671
  C     -240.668     397.868    -510.499
  N     -240.867     396.673    -509.870
  C     -241.832     398.634    -510.980
  C     -241.552     399.781    -511.600
  O     -245.284     403.778    -515.899
  O     -245.262     401.430    -514.775
  H     -237.525     402.126    -514.623
  H     -244.885     403.445    -516.750
  H     -242.837     398.260    -510.840
  H     -242.360     400.406    -511.984
  H     -239.459     402.148    -511.759
  H     -238.308     400.391    -513.597
  H     -240.474     400.047    -514.702
  H     -240.612     403.139    -514.687
  H     -240.047     396.138    -509.610
  H     -242.292     402.060    -516.174
  H     -241.768     396.213    -509.835
  H     -242.824     401.045    -514.812
  P     -238.550     399.998    -516.660
  C     -236.697     398.733    -515.353
  O     -237.198     399.979    -515.803
  O     -238.080     400.541    -518.086
  O     -239.271     398.684    -516.761
  H     -238.005     399.814    -518.735
  H     -235.795     398.890    -514.799
  H     -236.494     398.105    -516.195
  H     -237.424     398.262    -514.724

 6  7  8  9  10  11  12  13  14  15  16  26  30  31  32  33  35 0
 6-311+G(2d,p)
 ****
 37  38 0
 6-311+G(2d,p)
 ****
 1  2  3  4  5  17  18  19  20  21  22  23  24  25 0
 3-21G
 ****
 27  28  29  34  36  39  40  41  42  43  44  45  46 0
 3-21G
 ****


