%nproc=1
%NoSave
%Mem=1900MB
#P OB98/GEN NMR

erre ene a

0 1
  C      127.832    -462.997    -103.090
  O      129.167    -462.960    -103.609
  P      130.343    -462.540    -102.597
  C      130.248    -459.954    -103.031
  O      130.002    -461.039    -102.142
  C      129.537    -458.702    -102.529
  O      129.925    -458.398    -101.166
  C      129.854    -457.444    -103.328
  O      129.186    -457.448    -104.581
  C      129.393    -456.362    -102.362
  O      127.967    -456.198    -102.433
  C      129.784    -456.967    -100.993
  N      130.985    -456.375    -100.427
  C      130.958    -454.994    -100.253
  O      129.994    -454.295    -100.571
  N      132.081    -454.437     -99.711
  C      133.223    -455.102     -99.368
  O      134.196    -454.554     -98.878
  C      133.212    -456.553     -99.622
  C      132.114    -457.117    -100.132
  O      131.573    -462.385    -103.598
  O      130.538    -463.526    -101.493
  H      131.316    -462.034    -104.468
  H      127.708    -455.684    -101.645
  H      132.079    -453.437     -99.566
  H      134.106    -457.111     -99.382
  H      132.089    -458.181    -100.330
  H      128.964    -456.831    -100.274
  H      129.846    -455.388    -102.575
  H      130.936    -457.366    -103.485
  H      128.455    -458.893    -102.541
  H      129.878    -460.203    -104.030
  H      131.327    -459.798    -103.103
  P      130.091    -457.727    -105.882
  C      130.509    -455.148    -105.964
  O      131.041    -456.451    -106.059
  O      129.010    -457.573    -107.050
  O      130.788    -459.050    -105.854
  H      128.429    -456.800    -106.932
  H      131.325    -454.448    -105.762
  H      129.775    -455.071    -105.157
  H      130.035    -454.876    -106.912
  H      127.156    -463.290    -103.866
  H      127.563    -462.026    -102.729
  H      127.781    -463.703    -102.287

 3  4  5  6  7  8  9  10  11  12  13  24  28  29  30  31  32 0
 6-311+G(2d,p)
 ****
 33  34 0
 6-311+G(2d,p)
 ****
 1  2  14  15  16  17  18  19  20  21  22  23  25  26  27 0
 3-21G
 ****
 35  36  37  38  39  40  41  42  43  44  45 0
 3-21G
 ****


