%nproc=1
%NoSave
%Mem=1900MB
#P OB98/GEN NMR

erre ene a

0 1
  C     -402.923    -639.794     202.511
  O     -403.957    -638.854     202.324
  H     -402.047    -639.282     202.918
  H     -402.647    -640.238     201.549
  H     -403.227    -640.582     203.207
  P     -405.423    -639.429     202.028
  C     -406.466    -637.499     203.405
  O     -406.449    -638.204     202.174
  C     -405.328    -636.484     203.458
  O     -405.557    -635.464     202.457
  C     -405.175    -635.786     204.815
  O     -403.783    -635.610     205.095
  C     -405.818    -634.429     204.580
  O     -405.320    -633.427     205.469
  C     -405.492    -634.185     203.111
  N     -406.241    -629.309     202.081
  C     -405.148    -629.945     202.625
  N     -404.089    -629.174     202.942
  N     -405.089    -631.241     202.834
  C     -406.201    -631.893     202.430
  C     -407.362    -631.376     201.886
  C     -407.424    -629.945     201.687
  O     -408.370    -629.316     201.236
  N     -408.280    -632.362     201.645
  C     -407.688    -633.480     202.035
  N     -406.419    -633.244     202.513
  O     -405.729    -640.331     203.313
  O     -405.561    -640.219     200.769
  H     -405.466    -633.751     206.382
  H     -405.815    -641.268     203.051
  H     -406.246    -628.313     201.965
  H     -408.113    -634.462     202.006
  H     -404.482    -633.778     202.975
  H     -406.906    -634.507     204.738
  H     -404.045    -628.188     202.770
  H     -405.644    -636.329     205.633
  H     -403.258    -629.629     203.303
  H     -404.396    -636.996     203.174
  H     -406.349    -638.216     204.226
  H     -407.428    -636.980     203.515
  P     -403.219    -636.325     206.420
  C     -400.681    -636.061     205.947
  O     -401.784    -635.683     206.764
  O     -402.855    -637.805     205.906
  O     -404.186    -636.367     207.552
  H     -403.502    -638.445     206.260
  H     -399.798    -635.562     206.287
  H     -400.878    -635.785     204.932
  H     -400.539    -637.120     206.008

 6  7  8  9  10  11  12  13  14  15  26  29  33  34 0
 6-311+G(2d,p)
 ****
 36  38  39  40  41 0
 6-311+G(2d,p)
 ****
 1  2  3  4  5  16  17  18  19  20  21  22  23  24  25 0
 3-21G
 ****
 27  28  30  31  32  35  37  42  43  44  45  46  47 0
 3-21G
 ****
 48  49 0
 3-21G
 ****


