%nproc=1
%NoSave
%Mem=1900MB
#P OB98/GEN NMR

erre ene a

0 1
  C       64.589     117.555     236.088
  O       64.084     116.689     237.086
  H       63.782     117.790     235.388
  H       65.400     117.072     235.535
  H       64.947     118.486     236.536
  P       65.084     116.191     238.234
  C       63.713     117.608     239.903
  O       65.004     117.295     239.395
  C       63.732     118.978     240.574
  O       64.083     119.999     239.622
  C       62.391     119.389     241.179
  O       62.210     118.777     242.448
  C       62.578     120.897     241.260
  O       63.425     121.222     242.378
  C       63.306     121.189     239.937
  N       62.806     123.766     235.598
  C       63.839     123.772     236.520
  N       64.861     124.616     236.269
  N       63.851     123.032     237.600
  C       62.731     122.289     237.753
  C       61.638     122.212     236.921
  C       61.658     122.994     235.702
  O       60.773     123.006     234.847
  N       60.662     121.401     237.442
  C       61.182     120.955     238.567
  N       62.431     121.478     238.813
  O       66.484     115.869     237.801
  O       64.345     114.926     238.874
  H       63.033     120.790     243.160
  H       64.628     114.097     238.445
  H       62.846     124.374     234.796
  H       60.699     120.258     239.242
  H       64.009     122.028     240.026
  H       61.641     121.439     241.394
  H       64.765     125.394     235.626
  H       61.557     119.179     240.501
  H       65.599     124.672     236.956
  H       64.520     118.966     241.340
  H       63.444     116.830     240.626
  H       62.974     117.605     239.092
  P       61.205     117.536     242.635
  C       62.539     116.168     244.375
  O       62.150     116.297     243.013
  O       60.291     117.291     241.481
  O       60.453     117.834     244.010
  H       59.633     118.378     243.901
  H       63.163     115.306     244.488
  H       61.667     116.059     244.986
  H       63.079     117.041     244.676

 6  7  8  9  10  11  12  13  14  15  26  29  33  34 0
 6-311+G(2d,p)
 ****
 36  38  39  40  41 0
 6-311+G(2d,p)
 ****
 1  2  3  4  5  16  17  18  19  20  21  22  23  24  25 0
 3-21G
 ****
 27  28  30  31  32  35  37  42  43  44  45  46  47 0
 3-21G
 ****
 48  49 0
 3-21G
 ****


