%nproc=1
%NoSave
%Mem=1900MB
#P OB98/GEN NMR

erre ene a

0 1
  C     -391.613    -154.730     273.072
  O     -390.266    -155.059     273.364
  P     -389.659    -156.456     272.870
  C     -388.442    -157.105     275.079
  O     -388.329    -156.715     273.728
  C     -387.399    -156.391     275.953
  O     -386.089    -156.862     275.553
  C     -387.366    -154.875     275.797
  O     -386.686    -154.317     276.923
  C     -386.511    -154.710     274.556
  O     -385.955    -153.403     274.454
  C     -385.486    -155.862     274.704
  N     -385.137    -156.444     273.395
  C     -383.785    -156.487     273.064
  O     -382.893    -156.139     273.841
  N     -383.491    -156.866     271.785
  C     -384.411    -157.150     270.818
  O     -384.156    -157.182     269.619
  C     -385.795    -157.319     271.285
  C     -386.097    -156.937     272.531
  O     -389.110    -156.105     271.411
  O     -390.626    -157.589     272.845
  H     -386.714    -152.772     274.437
  H     -389.765    -156.357     270.732
  H     -382.523    -156.762     271.503
  H     -386.533    -157.686     270.584
  H     -387.120    -157.000     272.886
  H     -384.558    -155.510     275.175
  H     -387.138    -154.875     273.668
  H     -388.348    -154.414     275.681
  H     -387.554    -156.668     277.001
  H     -388.327    -158.194     275.150
  H     -389.444    -156.874     275.458
  P     -387.326    -153.019     277.624
  C     -385.436    -151.283     277.685
  O     -386.131    -152.290     278.395
  O     -388.565    -153.253     278.419
  O     -387.596    -152.040     276.381
  H     -388.239    -151.355     276.635
  H     -385.053    -150.548     278.398
  H     -386.090    -150.776     276.968
  H     -384.594    -151.735     277.153
  H     -391.841    -153.766     273.478
  H     -392.261    -155.462     273.507
  H     -391.754    -154.713     272.011

 3  4  5  6  7  8  9  10  11  12  13  23  28  29  30  31  32 0
 6-311+G(2d,p)
 ****
 33  34 0
 6-311+G(2d,p)
 ****
 1  2  14  15  16  17  18  19  20  21  22  24  25  26  27 0
 3-21G
 ****
 35  36  37  38  39  40  41  42  43  44  45 0
 3-21G
 ****


