%nproc=1
%NoSave
%Mem=1900MB
#P OB98/GEN NMR

erre ene a

0 1
  C      405.170     119.847    -568.158
  O      406.306     119.011    -568.258
  H      404.820     119.891    -567.123
  H      405.453     120.852    -568.481
  H      404.369     119.481    -568.808
  P      406.132     117.502    -567.729
  C      406.959     118.244    -565.387
  O      407.114     117.346    -566.472
  C      407.910     117.865    -564.243
  O      407.645     116.527    -563.796
  C      409.387     117.875    -564.626
  O      409.919     119.213    -564.654
  C      409.973     117.060    -563.490
  O      410.142     117.898    -562.319
  C      408.891     116.006    -563.246
  N      410.159     111.099    -562.378
  C      409.941     112.145    -561.528
  N      409.624     113.415    -561.836
  C      409.505     113.581    -563.157
  C      409.691     112.620    -564.134
  C      410.037     111.324    -563.697
  N      410.280     110.264    -564.555
  N      409.466     113.136    -565.390
  C      409.157     114.400    -565.185
  N      409.167     114.719    -563.854
  O      406.824     116.625    -568.865
  O      404.721     117.080    -567.494
  H      410.464     117.326    -561.606
  H      406.329     115.784    -568.969
  H      410.049     111.926    -560.476
  H      408.901     115.114    -565.963
  H      408.707     115.855    -562.167
  H      410.955     116.641    -563.713
  H      409.568     117.357    -565.600
  H      407.711     118.549    -563.405
  H      405.924     118.200    -565.021
  H      410.326     109.332    -564.186
  H      410.165     110.436    -565.556
  H      407.159     119.268    -565.732
  P      410.594     119.715    -566.024
  C      412.696     118.213    -565.790
  O      412.186     119.534    -565.817
  O      410.372     121.290    -565.959
  O      410.029     119.121    -567.277
  H      410.378     121.671    -566.879
  H      413.756     118.243    -565.647
  H      412.474     117.726    -566.717
  H      412.243     117.672    -564.986

 6  7  8  9  10  11  12  13  14  15  25  28  32  33  34  35 0
 6-311+G(2d,p)
 ****
 36  39  40 0
 6-311+G(2d,p)
 ****
 1  2  3  4  5  16  17  18  19  20  21  22  23  24 0
 3-21G
 ****
 26  27  29  30  31  37  38  41  42  43  44  45  46  47  48 0
 3-21G
 ****


