%nproc=1
%NoSave
%Mem=1900MB
#P OB98/GEN NMR

erre ene a

0 1
  C       43.446    -116.786     -62.601
  O       43.723    -115.537     -63.204
  H       44.377    -117.357     -62.537
  H       42.735    -117.350     -63.210
  H       43.050    -116.651     -61.591
  P       42.541    -114.460     -63.330
  C       40.400    -114.198     -64.731
  O       41.538    -115.006     -64.459
  C       39.619    -114.754     -65.921
  O       40.329    -114.423     -67.144
  C       39.435    -116.278     -65.880
  O       38.137    -116.592     -66.383
  C       40.491    -116.785     -66.845
  O       40.143    -118.045     -67.416
  C       40.555    -115.649     -67.867
  N       43.008    -117.043     -72.061
  C       41.675    -117.169     -71.725
  N       40.873    -117.778     -72.628
  N       41.167    -116.735     -70.600
  C       42.080    -116.134     -69.797
  C       43.424    -115.949     -70.016
  C       43.977    -116.446     -71.260
  O       45.149    -116.373     -71.607
  N       44.019    -115.316     -68.950
  C       43.035    -115.123     -68.089
  N       41.839    -115.612     -68.551
  O       42.982    -113.044     -63.528
  O       41.706    -114.640     -61.977
  H       39.891    -118.637     -66.675
  H       41.939    -113.945     -61.333
  H       43.347    -117.402     -72.939
  H       43.133    -114.646     -67.121
  H       39.786    -115.744     -68.644
  H       41.449    -116.896     -66.321
  H       41.190    -118.122     -73.521
  H       39.558    -116.695     -64.876
  H       39.885    -117.861     -72.413
  H       38.649    -114.244     -65.970
  H       40.747    -113.182     -64.959
  H       39.759    -114.162     -63.843
  P       37.058    -117.238     -65.387
  C       36.514    -119.564     -64.417
  O       37.428    -118.787     -65.183
  O       35.628    -116.962     -65.715
  O       37.459    -116.601     -63.968
  H       36.655    -116.525     -63.417
  H       36.869    -120.572     -64.353
  H       35.554    -119.553     -64.889
  H       36.432    -119.151     -63.433

 6  7  8  9  10  11  12  13  14  15  26  29  33  34 0
 6-311+G(2d,p)
 ****
 36  38  39  40  41 0
 6-311+G(2d,p)
 ****
 1  2  3  4  5  16  17  18  19  20  21  22  23  24  25 0
 3-21G
 ****
 27  28  30  31  32  35  37  42  43  44  45  46  47 0
 3-21G
 ****
 48  49 0
 3-21G
 ****


