%nproc=1
%NoSave
%Mem=1900MB
#P OB98/GEN NMR

erre ene a

0 1
  C      -21.619      71.630     114.447
  O      -21.214      71.242     113.149
  H      -20.820      72.225     114.900
  H      -21.794      70.747     115.067
  H      -22.527      72.238     114.397
  P      -22.269      70.389     112.291
  C      -21.781      68.083     113.392
  O      -22.705      69.151     113.215
  C      -22.458      66.930     114.130
  O      -22.846      67.368     115.451
  C      -23.739      66.432     113.468
  O      -23.471      65.573     112.373
  C      -24.420      65.731     114.637
  O      -23.924      64.398     114.813
  C      -24.011      66.603     115.832
  N      -28.598      66.811     118.050
  C      -27.745      65.784     117.831
  N      -26.527      65.817     117.247
  C      -26.214      67.071     116.882
  C      -26.982      68.213     117.033
  C      -28.231      68.052     117.654
  N      -29.115      69.089     117.844
  N      -26.337      69.307     116.490
  C      -25.196      68.837     116.028
  N      -25.078      67.492     116.248
  O      -21.351      69.716     111.164
  O      -23.395      71.174     111.703
  H      -24.027      63.945     113.953
  H      -21.369      70.266     110.357
  H      -28.088      64.808     118.165
  H      -24.436      69.421     115.524
  H      -23.731      66.001     116.707
  H      -25.498      65.658     114.483
  H      -24.359      67.281     113.154
  H      -21.733      66.113     114.241
  H      -20.927      68.438     113.984
  H      -21.422      67.757     112.410
  H      -30.006      68.896     118.276
  H      -28.898      69.998     117.456
  P      -24.280      65.800     111.010
  C      -26.274      64.345     111.830
  O      -25.840      65.601     111.329
  O      -23.902      64.511     110.140
  O      -23.956      67.070     110.295
  H      -23.212      64.730     109.487
  H      -27.332      64.371     111.991
  H      -25.777      64.139     112.755
  H      -26.040      63.578     111.121

 6  7  8  9  10  11  12  13  14  15  25  28  32  33  34  35 0
 6-311+G(2d,p)
 ****
 36  37  40 0
 6-311+G(2d,p)
 ****
 1  2  3  4  5  16  17  18  19  20  21  22  23  24 0
 3-21G
 ****
 26  27  29  30  31  38  39 41  42  43  44  45  46  47  48 0
 3-21G
 ****


