%nproc=1
%NoSave
%Mem=1900MB
#P OB98/GEN NMR

erre ene a

0 1
  C     -539.111     371.385      40.590
  O     -540.094     372.244      41.183
  P     -539.614     373.115      42.450
  C     -541.829     373.268      43.803
  O     -540.884     373.939      42.984
  C     -543.065     374.154      44.013
  O     -542.711     375.547      44.151
  C     -544.052     374.093      42.854
  O     -544.790     372.888      42.868
  C     -544.882     375.346      43.128
  O     -545.854     375.089      44.163
  C     -543.827     376.330      43.655
  N     -544.995     380.460      40.876
  C     -545.686     379.786      41.811
  N     -545.310     378.685      42.507
  C     -544.064     378.318      42.160
  C     -543.230     378.912      41.222
  C     -543.752     380.042      40.559
  N     -543.047     380.732      39.594
  N     -542.028     378.249      41.138
  C     -542.136     377.244      41.990
  N     -543.340     377.253      42.635
  O     -538.676     374.229      41.793
  O     -538.893     372.318      43.486
  H     -546.582     374.579      43.750
  H     -537.740     374.056      42.022
  H     -546.688     380.157      42.036
  H     -541.375     376.497      42.169
  H     -544.197     376.932      44.491
  H     -545.428     375.701      42.249
  H     -543.526     374.199      41.897
  H     -543.556     373.826      44.945
  H     -541.391     373.025      44.778
  H     -543.518     381.483      39.104
  H     -542.153     380.373      39.283
  H     -542.103     372.318      43.327
  P     -545.553     372.470      41.515
  C     -547.761     371.627      42.537
  O     -546.513     371.260      41.989
  O     -544.407     371.718      40.715
  O     -546.242     373.591      40.806
  H     -543.913     371.095      41.277
  H     -548.317     370.709      42.783
  H     -548.343     372.210      41.815
  H     -547.617     372.202      43.454
  H     -539.546     370.862      39.764
  H     -538.768     370.679      41.318
  H     -538.285     371.972      40.246

 3  4  5  6  7  8  9  10  11  12  22  25  29  30  31  32 0
 6-311+G(2d,p)
 ****
 33  36  37 0
 6-311+G(2d,p)
 ****
 1  2  13  14  15  16  17  18  19  20  21  23  24  26 0
 3-21G
 ****
 27  28  34  35  38  39  40  41  42  43  44  45  46  47  48 0
 3-21G
 ****


