%nproc=1
%NoSave
%Mem=1900MB
#P OB98/GEN NMR

erre ene a

0 1
  C      -16.872      49.567      33.414
  O      -16.561      48.202      33.242
  H      -16.279      49.958      34.244
  H      -17.932      49.678      33.657
  H      -16.637      50.143      32.516
  P      -17.037      47.465      31.904
  C      -19.276      46.439      32.674
  O      -18.641      47.456      31.915
  C      -20.656      46.107      32.092
  O      -21.483      47.299      32.134
  C      -20.559      45.683      30.623
  O      -21.615      44.804      30.247
  C      -20.725      47.001      29.883
  O      -21.178      46.835      28.540
  C      -21.718      47.731      30.784
  N      -22.200      51.883      27.867
  C      -22.217      50.552      27.501
  N      -22.388      50.294      26.182
  N      -22.057      49.565      28.344
  C      -21.825      49.973      29.614
  C      -21.761      51.260      30.095
  C      -21.974      52.343      29.158
  O      -21.946      53.539      29.426
  N      -21.496      51.279      31.442
  C      -21.395      50.008      31.774
  N      -21.611      49.175      30.704
  O      -16.683      45.926      32.175
  O      -16.411      47.958      30.635
  H      -21.266      47.724      28.150
  H      -16.601      45.444      31.333
  H      -22.357      52.601      27.183
  H      -21.184      49.640      32.769
  H      -22.749      47.462      30.521
  H      -19.750      47.492      29.836
  H      -22.316      51.020      25.487
  H      -19.606      45.217      30.382
  H      -22.094      49.368      25.861
  H      -21.155      45.354      32.712
  H      -19.370      46.814      33.695
  H      -18.650      45.547      32.713
  P      -21.294      43.243      30.096
  C      -21.395      42.862      27.479
  O      -20.641      42.959      28.667
  O      -22.737      42.566      29.998
  O      -20.481      42.669      31.214
  H      -22.894      41.986      30.767
  H      -20.740      42.668      26.656
  H      -21.916      43.781      27.311
  H      -22.101      42.063      27.569

 6  7  8  9  10  11  12  13  14  15  26  29  33  34 0
 6-311+G(2d,p)
 ****
 36  38  39  40  41 0
 6-311+G(2d,p)
 ****
 1  2  3  4  5  16  17  18  19  20  21  22  23  24  25 0
 3-21G
 ****
 27  28  30  31  32  35  37  42  43  44  45  46  47 0
 3-21G
 ****
 48  49 0
 3-21G
 ****


