%nproc=1
%NoSave
%Mem=1900MB
#P OB98/GEN NMR

erre ene a

0 1
  C      -88.712     -65.149     -16.333
  O      -88.240     -64.176     -15.417
  P      -87.971     -64.645     -13.904
  C      -85.553     -63.704     -13.721
  O      -86.906     -63.613     -13.294
  C      -84.712     -62.631     -13.036
  O      -84.937     -61.342     -13.641
  C      -85.024     -62.441     -11.558
  O      -84.389     -63.410     -10.742
  C      -84.431     -61.064     -11.309
  O      -83.005     -61.168     -11.132
  C      -84.755     -60.333     -12.618
  N      -86.538     -55.734     -11.494
  C      -85.236     -56.157     -11.671
  N      -84.272     -55.236     -11.460
  N      -84.908     -57.370     -12.026
  C      -85.978     -58.186     -12.193
  C      -87.313     -57.882     -12.050
  C      -87.660     -56.538     -11.646
  O      -88.790     -56.117     -11.423
  N      -88.104     -58.968     -12.314
  C      -87.255     -59.929     -12.619
  N      -85.952     -59.516     -12.517
  O      -87.121     -65.989     -14.080
  O      -89.203     -64.860     -13.091
  H      -82.857     -61.843     -10.441
  H      -87.134     -66.503     -13.250
  H      -86.739     -54.787     -11.215
  H      -87.535     -60.936     -12.900
  H      -83.932     -59.687     -12.940
  H      -84.828     -60.586     -10.409
  H      -84.455     -54.301     -11.124
  H      -86.107     -62.407     -11.381
  H      -83.306     -55.534     -11.520
  H      -83.654     -62.890     -13.175
  H      -85.508     -63.572     -14.803
  H      -85.166     -64.700     -13.479
  P      -85.315     -64.182      -9.680
  C      -84.026     -66.409     -10.029
  O      -84.417     -65.389      -9.131
  O      -86.403     -64.900     -10.608
  O      -85.940     -63.301      -8.651
  H      -87.229     -65.048     -10.112
  H      -83.219     -66.989      -9.569
  H      -83.661     -65.989     -10.969
  H      -84.870     -67.076     -10.225
  H      -88.845     -64.699     -17.294
  H      -89.647     -65.539     -15.989
  H      -88.000     -65.944     -16.407

 3  4  5  6  7  8  9  10  11  12  23  26  30  31 0
 6-311+G(2d,p)
 ****
 33  35  36  37  38 0
 6-311+G(2d,p)
 ****
 1  2  13  14  15  16  17  18  19  20  21  22  24  25 0
 3-21G
 ****
 27  28  29  32  34  39  40  41  42  43  44  45  46  47  48  49 0
 3-21G
 ****


