%nproc=1
%NoSave
%Mem=1900MB
#P OB98/GEN NMR

erre ene a

0 1
  C       22.447     121.373       8.972
  O       23.293     120.526       9.721
  H       23.058     122.135       8.482
  H       21.728     121.868       9.629
  H       21.920     120.798       8.207
  P       22.585     119.365      10.572
  C       21.165     119.359      12.747
  O       21.602     120.091      11.611
  C       20.669     120.324      13.818
  O       21.795     120.911      14.509
  C       19.870     121.499      13.274
  O       18.537     121.141      12.956
  C       19.958     122.471      14.439
  O       18.960     122.192      15.434
  C       21.377     122.204      14.988
  N       22.316     123.257      14.616
  C       22.394     124.334      15.493
  O       21.723     124.416      16.521
  N       23.246     125.341      15.130
  C       23.981     125.391      13.982
  O       24.671     126.356      13.680
  C       23.870     124.217      13.099
  C       23.048     123.224      13.446
  O       23.774     118.815      11.492
  O       21.953     118.284       9.762
  H       24.109     117.972      11.134
  H       18.977     122.946      16.055
  H       23.307     126.135      15.747
  H       24.446     124.222      12.182
  H       22.934     122.358      12.801
  H       21.356     122.142      16.083
  H       19.803     123.500      14.115
  H       20.381     121.937      12.409
  H       20.076     119.757      14.549
  H       21.999     118.776      13.149
  H       20.369     118.671      12.442
  P       17.873     121.759      11.633
  C       16.069     123.615      11.194
  O       16.884     122.923      12.120
  O       16.896     120.573      11.195
  O       18.866     122.172      10.601
  H       16.503     120.106      11.951
  H       15.485     124.348      11.711
  H       15.418     122.922      10.704
  H       16.687     124.099      10.467

 6  7  8  9  10  11  12  13  14  15  16  27  31  32  33  34  35 0
 6-311+G(2d,p)
 ****
 36  37 0
 6-311+G(2d,p)
 ****
 1  2  3  4  5  17  18  19  20  21  22  23  24  25 0
 3-21G
 ****
 26  28  29  30  38  39  40  41  42  43  44  45 0
 3-21G
 ****


