%nproc=1
%NoSave
%Mem=1900MB
#P OB98/GEN NMR

erre ene a

0 1
  C     -104.822      27.628     423.751
  O     -104.230      28.598     422.915
  H     -104.589      26.636     423.354
  H     -105.907      27.750     423.768
  H     -104.419      27.701     424.765
  P     -104.472      30.150     423.240
  C     -102.229      30.788     422.133
  O     -103.638      30.989     422.154
  C     -101.588      31.667     421.053
  O     -101.857      31.053     419.766
  C     -102.155      33.093     421.037
  O     -101.146      34.095     421.100
  C     -103.081      33.085     419.822
  O     -103.286      34.352     419.237
  C     -102.434      32.046     418.900
  N     -103.366      31.430     417.957
  C     -103.429      31.965     416.675
  O     -102.747      32.907     416.269
  N     -104.321      31.365     415.824
  C     -105.143      30.320     416.128
  O     -105.924      29.823     415.324
  C     -105.055      29.820     417.510
  C     -104.186      30.385     418.346
  O     -104.237      30.555     424.655
  O     -105.991      30.404     422.800
  H     -103.832      34.216     418.434
  H     -106.554      30.473     423.596
  H     -104.364      31.734     414.890
  H     -105.704      29.000     417.787
  H     -104.091      30.039     419.370
  H     -101.627      32.498     418.319
  H     -104.063      32.715     420.139
  H     -102.756      33.283     421.934
  H     -100.499      31.665     421.198
  H     -102.042      29.732     421.925
  H     -101.808      31.041     423.114
  P     -100.862      35.033     422.359
  C      -98.269      35.318     422.051
  O      -99.562      35.912     422.063
  O     -100.938      34.374     423.697
  O     -102.050      36.127     422.294
  H     -102.247      36.373     423.223
  H      -97.535      36.066     421.835
  H      -98.233      34.556     421.300
  H      -98.067      34.885     423.008

 6  7  8  9  10  11  12  13  14  15  16  26  31  32  33  34  35 0
 6-311+G(2d,p)
 ****
 36  37 0
 6-311+G(2d,p)
 ****
 1  2  3  4  5  17  18  19  20  21  22  23  24  25 0
 3-21G
 ****
 27  28  29  30  38  39  40  41  42  43  44  45 0
 3-21G
 ****


