%nproc=1
%NoSave
%Mem=1900MB
#P OB98/GEN NMR

erre ene a

0 1
  C      134.584     -61.364     -19.823
  O      133.787     -60.828     -20.861
  H      135.626     -61.092     -20.005
  H      134.500     -62.455     -19.816
  H      134.274     -60.959     -18.855
  P      132.196     -60.960     -20.691
  C      130.484     -59.747     -19.113
  O      131.763     -59.760     -19.720
  C      130.131     -58.339     -18.628
  O      131.080     -57.949     -17.603
  C      130.175     -57.280     -19.732
  O      129.144     -56.323     -19.481
  C      131.530     -56.623     -19.532
  O      131.575     -55.308     -20.079
  C      131.678     -56.700     -18.004
  N      133.071     -56.606     -17.573
  C      133.517     -55.348     -17.157
  O      132.754     -54.381     -17.178
  N      134.824     -55.202     -16.769
  C      135.636     -56.209     -16.851
  N      136.925     -55.992     -16.476
  C      135.221     -57.543     -17.326
  C      133.937     -57.672     -17.658
  O      132.073     -62.261     -19.767
  O      131.443     -61.043     -21.977
  H      131.065     -55.301     -20.918
  H      132.702     -62.270     -19.027
  H      135.937     -58.349     -17.388
  H      133.544     -58.618     -18.009
  H      131.114     -55.891     -17.522
  H      132.312     -57.216     -20.018
  H      130.052     -57.704     -20.730
  H      129.145     -58.371     -18.152
  H      137.172     -55.057     -16.178
  H      130.458     -60.439     -18.265
  H      137.654     -56.686     -16.551
  H      129.754     -60.088     -19.853
  P      127.781     -56.396     -20.316
  C      125.691     -57.919     -20.258
  O      126.708     -57.268     -19.505
  O      127.922     -56.742     -21.759
  O      127.195     -54.905     -20.159
  H      126.823     -54.640     -21.023
  H      125.049     -58.461     -19.596
  H      126.141     -58.597     -20.953
  H      125.119     -57.189     -20.791

 6  7  8  9  10  11  12  13  14  15  16  26  30  31  32  33  35 0
 6-311+G(2d,p)
 ****
 37  38 0
 6-311+G(2d,p)
 ****
 1  2  3  4  5  17  18  19  20  21  22  23  24  25 0
 3-21G
 ****
 27  28  29  34  36  39  40  41  42  43  44  45  46 0
 3-21G
 ****


