%nproc=1
%NoSave
%Mem=1900MB
#P OB98/GEN NMR

erre ene a

0 1
  C      132.323      12.927      21.079
  O      133.334      12.526      21.985
  P      134.358      13.631      22.528
  C      136.362      12.782      21.104
  O      135.478      13.852      21.400
  C      137.443      13.241      20.121
  O      138.364      12.138      19.868
  C      136.896      13.702      18.761
  O      137.746      14.758      18.289
  C      137.087      12.469      17.897
  O      137.077      12.754      16.507
  C      138.431      11.967      18.437
  N      138.708      10.578      18.071
  C      139.768      10.347      17.199
  O      140.475      11.235      16.723
  N      139.960       9.043      16.828
  C      139.165       7.987      17.163
  O      139.324       6.860      16.704
  C      138.061       8.291      18.087
  C      137.885       9.550      18.492
  O      135.139      12.865      23.695
  O      133.717      14.887      23.015
  H      137.612      12.072      16.063
  H      134.780      13.117      24.567
  H      140.731       8.855      16.206
  H      137.423       7.470      18.390
  H      137.067       9.807      19.157
  H      139.245      12.608      18.076
  H      136.282      11.753      18.101
  H      135.854      14.037      18.798
  H      138.023      14.046      20.591
  H      135.798      11.962      20.657
  H      136.815      12.414      22.031
  P      137.073      16.185      17.990
  C      137.645      16.044      15.443
  O      136.659      16.187      16.444
  O      138.360      17.140      18.045
  O      136.007      16.564      18.967
  H      139.128      16.758      17.585
  H      138.457      15.389      15.768
  H      138.053      17.027      15.195
  H      137.184      15.617      14.549
  H      131.726      12.080      20.813
  H      132.774      13.336      20.199
  H      131.704      13.668      21.540

 3  4  5  6  7  8  9  10  11  12  13  23  28  29  30  31  32 0
 6-311+G(2d,p)
 ****
 33  34 0
 6-311+G(2d,p)
 ****
 1  2  14  15  16  17  18  19  20  21  22  24  25  26 0
 3-21G
 ****
 27  35  36  37  38  39  40  41  42  43  44  45 0
 3-21G
 ****


