%nproc=1
%NoSave
%Mem=1900MB
#P OB98/GEN NMR

erre ene a

0 1
  C     -138.608    -380.271    -190.016
  O     -139.003    -379.507    -191.133
  P     -139.629    -378.043    -190.941
  C     -139.085    -377.331    -193.355
  O     -140.110    -377.564    -192.398
  C     -139.689    -377.180    -194.750
  O     -140.215    -378.444    -195.234
  C     -140.880    -376.236    -194.812
  O     -140.636    -374.867    -194.557
  C     -141.477    -376.592    -196.163
  O     -140.778    -375.949    -197.229
  C     -141.235    -378.124    -196.209
  N     -142.470    -378.875    -195.969
  C     -143.263    -379.108    -197.090
  O     -142.979    -378.716    -198.224
  N     -144.435    -379.783    -196.863
  C     -144.892    -380.199    -195.645
  O     -145.977    -380.763    -195.508
  C     -144.019    -379.911    -194.497
  C     -142.865    -379.272    -194.709
  O     -138.753    -377.067    -190.228
  O     -141.019    -378.333    -190.201
  H     -141.077    -376.355    -198.067
  H     -141.634    -378.900    -190.698
  H     -145.031    -379.948    -197.655
  H     -144.349    -380.242    -193.522
  H     -142.202    -379.049    -193.878
  H     -140.837    -378.421    -197.189
  H     -142.526    -376.294    -196.237
  H     -141.606    -376.548    -194.048
  H     -138.896    -376.879    -195.439
  H     -138.396    -378.183    -193.356
  H     -138.513    -376.439    -193.069
  P     -141.664    -373.702    -194.945
  C     -141.277    -371.969    -193.057
  O     -141.074    -372.307    -194.412
  O     -143.112    -373.970    -194.703
  O     -141.415    -373.576    -196.533
  H     -142.249    -373.300    -196.962
  H     -140.850    -370.975    -192.877
  H     -140.769    -372.686    -192.403
  H     -142.343    -371.935    -192.824
  H     -138.218    -381.211    -190.347
  H     -139.453    -380.439    -189.382
  H     -137.853    -379.743    -189.472

 3  4  5  6  7  8  9  10  11  12  13  23  28  29  30  31  32 0
 6-311+G(2d,p)
 ****
 33  34 0
 6-311+G(2d,p)
 ****
 1  2  14  15  16  17  18  19  20  21  22  24  25  26  27 0
 3-21G
 ****
 35  36  37  38  39  40  41  42  43  44  45 0
 3-21G
 ****


