%nproc=1
%NoSave
%Mem=1900MB
#P OB98/GEN NMR

erre ene a

0 1
  C     -899.340     319.737     743.243
  O     -899.800     318.450     742.878
  H     -899.350     320.397     742.373
  H     -900.000     320.148     744.007
  H     -898.320     319.682     743.655
  P     -898.870     317.596     741.897
  C     -898.460     316.023     743.928
  O     -897.880     316.752     742.855
  C     -897.440     315.041     744.511
  O     -897.180     314.005     743.533
  C     -896.100     315.693     744.871
  O     -895.620     315.107     746.084
  C     -895.200     315.314     743.714
  O     -893.820     315.312     744.078
  C     -895.750     313.940     743.341
  N     -891.960     312.898     740.077
  C     -891.980     313.114     741.414
  N     -893.030     313.381     742.212
  C     -894.170     313.360     741.503
  C     -894.330     313.153     740.148
  C     -893.140     312.919     739.413
  N     -893.120     312.730     738.045
  N     -895.650     313.244     739.772
  C     -896.290     313.502     740.906
  N     -895.440     313.587     741.975
  O     -897.900     318.722     741.275
  O     -899.570     316.819     740.842
  H     -893.300     315.031     743.308
  H     -898.380     319.193     740.561
  H     -891.000     313.079     741.899
  H     -897.360     313.637     740.994
  H     -895.350     313.139     743.980
  H     -895.340     316.024     742.889
  H     -896.180     316.778     744.992
  H     -897.900     314.549     745.379
  H     -899.330     315.474     743.560
  H     -892.230     312.636     737.600
  H     -893.980     312.808     737.527
  H     -898.790     316.717     744.706
  P     -896.020     315.849     747.449
  C     -898.020     314.265     747.938
  O     -897.580     315.604     747.722
  O     -895.930     317.401     747.079
  O     -895.110     315.518     748.595
  H     -895.410     317.882     747.741
  H     -899.077     314.259     748.105
  H     -897.521     313.859     748.793
  H     -897.792     313.671     747.077

 6  7  8  9  10  11  12  13  14  15  25  28  32  33  34  35 0
 6-311+G(2d,p)
 ****
 36  39  40 0
 6-311+G(2d,p)
 ****
 1  2  3  4  5  16  17  18  19  20  21  22  23  24 0
 3-21G
 ****
 26  27  29  30  31  37  38  41  42  43  44  45  46  47 0
 3-21G
 ****
 48 0
 3-21G
 ****


