%nproc=1
%NoSave
%Mem=1900MB
#P OB98/GEN NMR

erre ene a

0 1
  C       43.525    -536.806    -157.526
  O       43.442    -535.400    -157.420
  H       44.574    -537.091    -157.642
  H       42.973    -537.136    -158.411
  H       43.122    -537.292    -156.633
  P       42.072    -534.785    -156.855
  C       42.992    -533.418    -154.850
  O       42.449    -533.386    -156.160
  C       43.722    -532.112    -154.540
  O       44.958    -532.074    -155.318
  C       42.917    -530.847    -154.885
  O       43.195    -529.841    -153.898
  C       43.533    -530.404    -156.199
  O       43.336    -529.016    -156.449
  C       44.987    -530.797    -155.978
  N       48.269    -528.247    -158.793
  C       47.861    -528.049    -157.491
  N       48.355    -526.968    -156.851
  N       47.032    -528.842    -156.863
  C       46.628    -529.897    -157.614
  C       46.954    -530.202    -158.913
  C       47.859    -529.307    -159.602
  O       48.241    -529.417    -160.763
  N       46.286    -531.326    -159.336
  C       45.544    -531.681    -158.299
  N       45.718    -530.844    -157.232
  O       41.745    -535.745    -155.615
  O       40.945    -534.732    -157.830
  H       43.921    -528.513    -155.850
  H       41.135    -536.453    -155.897
  H       48.896    -527.596    -159.235
  H       44.857    -532.516    -158.281
  H       45.520    -530.087    -155.328
  H       43.092    -530.971    -157.028
  H       49.021    -526.329    -157.255
  H       41.839    -531.011    -154.949
  H       48.096    -526.832    -155.879
  H       44.011    -532.111    -153.482
  H       43.702    -534.250    -154.776
  H       42.186    -533.583    -154.128
  P       42.054    -529.499    -152.829
  C       43.740    -529.156    -150.874
  O       42.694    -528.601    -151.665
  O       41.798    -530.907    -152.109
  O       40.799    -528.962    -153.433
  H       40.856    -530.990    -151.867
  H       44.057    -528.438    -150.147
  H       44.565    -529.414    -151.504
  H       43.384    -530.034    -150.376

 6  7  8  9  10  11  12  13  14  15  26  29  33  34 0
 6-311+G(2d,p)
 ****
 36  38  39  40  41 0
 6-311+G(2d,p)
 ****
 1  2  3  4  5  16  17  18  19  20  21  22  23  24  25 0
 3-21G
 ****
 27  28  30  31  32  35  37  42  43  44  45  46  47 0
 3-21G
 ****
 48  49 0
 3-21G
 ****


