%nproc=1
%NoSave
%Mem=1900MB
#P OB98/GEN NMR

erre ene a

0 1
  C     -123.632     -80.698      55.903
  O     -123.520     -79.786      54.820
  P     -124.832     -79.520      53.933
  C     -124.772     -77.018      54.663
  O     -125.544     -78.218      54.541
  C     -125.308     -75.957      53.708
  O     -126.738     -75.812      53.844
  C     -124.733     -74.568      53.943
  O     -123.451     -74.394      53.354
  C     -125.766     -73.701      53.230
  O     -125.518     -73.711      51.806
  C     -127.076     -74.434      53.551
  N     -130.788     -71.274      54.904
  C     -130.477     -71.784      53.653
  N     -131.220     -71.337      52.615
  N     -129.519     -72.647      53.443
  C     -128.855     -73.001      54.581
  C     -129.086     -72.562      55.866
  C     -130.136     -71.595      56.082
  O     -130.432     -71.064      57.151
  N     -128.215     -73.154      56.750
  C     -127.474     -73.926      56.007
  N     -127.782     -73.843      54.670
  O     -125.824     -80.705      54.361
  O     -124.600     -79.503      52.460
  H     -124.626     -73.328      51.691
  H     -126.531     -80.810      53.705
  H     -131.539     -70.607      55.004
  H     -126.677     -74.566      56.381
  H     -127.757     -74.450      52.686
  H     -125.739     -72.654      53.555
  H     -131.917     -70.622      52.698
  H     -124.734     -74.318      55.015
  H     -130.957     -71.642      51.685
  H     -125.103     -76.280      52.684
  H     -123.729     -77.239      54.422
  H     -124.819     -76.670      55.700
  P     -122.507     -73.245      53.979
  C     -121.165     -74.959      55.383
  O     -121.999     -73.817      55.391
  O     -123.575     -72.107      54.392
  O     -121.455     -72.733      53.041
  H     -123.135     -71.233      54.387
  H     -120.691     -75.056      56.372
  H     -120.366     -74.861      54.633
  H     -121.746     -75.860      55.183
  H     -122.689     -80.777      56.402
  H     -123.921     -81.659      55.532
  H     -124.371     -80.345      56.592

 3  4  5  6  7  8  9  10  11  12  23  26  30  31 0
 6-311+G(2d,p)
 ****
 33  35  36  37  38 0
 6-311+G(2d,p)
 ****
 1  2  13  14  15  16  17  18  19  20  21  22  24  25 0
 3-21G
 ****
 27  28  29  32  34  39  40  41  42  43  44  45  46  47  48  49 0
 3-21G
 ****


