%nproc=1
%NoSave
%Mem=1900MB
#P OB98/GEN NMR

erre ene a

0 1
  C      173.034     391.345     231.899
  O      173.214     392.651     232.427
  P      172.093     393.193     233.450
  C      170.735     394.202     231.474
  O      171.368     394.430     232.730
  C      170.530     395.517     230.711
  O      169.705     395.259     229.541
  C      169.825     396.616     231.532
  O      170.389     397.864     231.109
  C      168.377     396.477     231.072
  O      167.568     397.605     231.364
  C      168.592     396.180     229.598
  N      164.412     397.195     226.817
  C      165.432     397.987     227.235
  N      166.529     397.641     227.967
  C      166.502     396.327     228.256
  C      165.517     395.397     227.917
  C      164.437     395.879     227.155
  N      163.391     395.073     226.743
  N      165.836     394.153     228.413
  C      166.976     394.320     229.047
  N      167.429     395.599     228.962
  O      172.968     393.900     234.597
  O      171.182     392.147     234.010
  H      166.651     397.429     231.102
  H      172.590     393.748     235.476
  H      165.366     399.029     226.934
  H      167.508     393.550     229.592
  H      168.884     397.080     229.027
  H      167.918     395.617     231.581
  H      169.953     396.514     232.617
  H      171.496     395.872     230.361
  H      169.756     393.745     231.646
  H      162.576     395.549     226.387
  H      163.318     394.158     227.175
  H      171.331     393.496     230.885
  P      170.991     398.856     232.210
  C      168.854     400.283     232.427
  O      170.202     400.247     231.972
  O      172.425     399.188     231.576
  O      171.041     398.328     233.621
  H      172.348     399.470     230.649
  H      168.484     401.292     232.286
  H      168.802     400.015     233.480
  H      168.247     399.597     231.824
  H      173.844     391.112     231.239
  H      172.111     391.302     231.360
  H      173.012     390.636     232.700

 3  4  5  6  7  8  9  10  11  12  22  25  29  30  31  32 0
 6-311+G(2d,p)
 ****
 33  36  37 0
 6-311+G(2d,p)
 ****
 1  2  13  14  15  16  17  18  19  20  21  23  24  26 0
 3-21G
 ****
 27  28  34  35  38  39  40  41  42  43  44  45  46  47  48 0
 3-21G
 ****


