%nproc=1
%NoSave
%Mem=1900MB
#P OB98/GEN NMR

erre ene a

0 1
  C       21.181      14.906    -160.642
  O       22.439      14.625    -161.259
  P       22.398      14.094    -162.774
  C       24.378      15.564    -163.575
  O       23.865      14.250    -163.411
  C       25.911      15.587    -163.541
  O       26.400      15.531    -162.176
  C       26.556      14.425    -164.303
  O       27.777      14.911    -164.870
  C       26.890      13.438    -163.200
  O       27.903      12.524    -163.614
  C       27.295      14.402    -162.070
  N       27.238      13.789    -160.745
  C       28.346      13.040    -160.343
  O       29.287      12.857    -161.119
  N       28.350      12.477    -159.092
  C       27.310      12.607    -158.325
  N       27.370      12.022    -157.097
  C       26.093      13.338    -158.731
  C       26.129      13.899    -159.937
  O       21.532      15.205    -163.535
  O       21.788      12.735    -162.916
  H       28.178      12.000    -162.831
  H       20.830      14.779    -164.061
  H       25.244      13.404    -158.068
  H       25.288      14.459    -160.322
  H       28.316      14.769    -162.225
  H       25.998      12.866    -162.918
  H       25.920      14.012    -165.091
  H       26.248      16.538    -163.971
  H       28.227      11.537    -156.853
  H       23.994      16.213    -162.787
  H       26.622      12.060    -156.424
  H       24.000      15.977    -164.518
  P       27.781      15.324    -166.417
  C       29.345      17.347    -166.156
  O       29.207      16.026    -166.649
  O       26.799      16.596    -166.413
  O       27.356      14.313    -167.429
  H       26.661      16.906    -167.328
  H       30.387      17.654    -166.268
  H       29.075      17.389    -165.096
  H       28.715      18.029    -166.732
  H       21.343      15.250    -159.642
  H       20.587      14.016    -160.621
  H       20.671      15.663    -161.201

 3  4  5  6  7  8  9  10  11  12  13  21  23  27  28  29  30  32 0
 6-311+G(2d,p)
 ****
 34  35 0
 6-311+G(2d,p)
 ****
 1  2  14  15  16  17  18  19  20  22  24  25  26 0
 3-21G
 ****
 31  33  36  37  38  39  40  41  42  43  44  45  46 0
 3-21G
 ****


