%nproc=1
%NoSave
%Mem=1900MB
#P OB98/GEN NMR

erre ene a

0 1
  C     1091.012     534.176    -552.082
  O     1091.618     535.120    -552.940
  H     1091.739     533.873    -551.326
  H     1090.700     533.287    -552.641
  H     1090.150     534.624    -551.579
  P     1090.787     535.637    -554.212
  C     1091.417     538.148    -554.339
  O     1091.688     536.839    -554.807
  C     1092.576     539.086    -554.681
  O     1093.696     538.872    -553.790
  C     1093.147     538.894    -556.087
  O     1092.316     539.423    -557.116
  C     1094.452     539.681    -555.940
  O     1094.172     541.084    -555.988
  C     1094.893     539.250    -554.513
  N     1095.851     538.128    -554.534
  C     1096.955     538.243    -553.687
  O     1097.110     539.228    -552.973
  N     1097.896     537.234    -553.690
  C     1097.742     536.212    -554.494
  N     1098.738     535.270    -554.496
  C     1096.585     536.055    -555.386
  C     1095.676     537.038    -555.367
  O     1089.351     535.963    -553.981
  O     1091.008     534.499    -555.326
  H     1094.064     541.393    -555.071
  H     1090.507     534.766    -556.131
  H     1096.509     535.196    -556.035
  H     1094.819     537.000    -555.998
  H     1095.356     540.095    -553.982
  H     1095.184     539.461    -556.734
  H     1093.388     537.840    -556.268
  H     1092.222     540.112    -554.524
  H     1099.532     535.435    -553.903
  H     1091.261     538.100    -553.250
  H     1098.823     534.621    -555.266
  H     1090.510     538.546    -554.807
  P     1092.780     539.178    -558.645
  C     1090.486     538.707    -559.773
  O     1091.550     539.624    -559.561
  O     1092.801     537.588    -558.761
  O     1094.086     539.827    -559.022
  H     1093.703     537.239    -558.585
  H     1089.748     539.157    -560.404
  H     1090.044     538.451    -558.833
  H     1090.865     537.823    -560.242

 6  7  8  9  10  11  12  13  14  15  16  26  30  31  32  33  35 0
 6-311+G(2d,p)
 ****
 37  38 0
 6-311+G(2d,p)
 ****
 1  2  3  4  5  17  18  19  20  21  22  23  24  25 0
 3-21G
 ****
 27  28  29  34  36  39  40  41  42  43  44  45  46 0
 3-21G
 ****


