%nproc=1
%NoSave
%Mem=1900MB
#P OB98/GEN NMR

erre ene a

0 1
  C     -511.512     254.764     517.388
  O     -510.575     255.378     516.526
  H     -511.271     255.042     518.421
  H     -511.451     253.675     517.292
  H     -512.528     255.102     517.164
  P     -510.873     255.304     514.953
  C     -511.216     257.879     514.762
  O     -510.476     256.739     514.346
  C     -510.393     259.145     514.546
  O     -509.288     259.157     515.494
  C     -509.779     259.261     513.142
  O     -509.794     260.634     512.748
  C     -508.344     258.814     513.352
  O     -507.440     259.295     512.369
  C     -508.075     259.371     514.750
  N     -506.936     258.727     515.399
  C     -505.756     259.461     515.501
  O     -505.631     260.638     515.164
  N     -504.682     258.783     516.029
  C     -504.673     257.480     516.428
  O     -503.675     256.921     516.870
  C     -505.944     256.757     516.291
  C     -506.997     257.404     515.790
  O     -512.472     255.308     514.887
  O     -510.273     254.143     514.237
  H     -512.814     254.393     514.918
  H     -507.590     260.268     512.288
  H     -503.827     259.298     516.109
  H     -505.964     255.714     516.585
  H     -507.952     256.892     515.651
  H     -507.907     260.453     514.705
  H     -508.293     257.719     513.349
  H     -510.291     258.655     512.375
  H     -511.014     260.020     514.764
  H     -511.443     257.786     515.832
  H     -512.156     257.925     514.205
  P     -511.099     261.171     511.989
  C     -509.558     263.210     511.400
  O     -510.575     262.308     510.984
  O     -511.822     261.984     513.157
  O     -511.908     260.083     511.368
  H     -511.202     262.421     513.767
  H     -509.339     263.892     510.605
  H     -508.675     262.660     511.652
  H     -509.894     263.757     512.256

 6  7  8  9  10  11  12  13  14  15  16  27  31  32  33  34  35 0
 6-311+G(2d,p)
 ****
 36  37 0
 6-311+G(2d,p)
 ****
 1  2  3  4  5  17  18  19  20  21  22  23  24  25 0
 3-21G
 ****
 26  28  29  30  38  39  40  41  42  43  44  45 0
 3-21G
 ****


