%nproc=1
%NoSave
%Mem=1900MB
#P OB98/GEN NMR

erre ene a

0 1
  C       20.017       7.685     192.011
  O       20.464       6.649     192.865
  P       19.631       5.290     193.024
  C       18.752       3.452     191.473
  O       19.207       4.794     191.559
  C       17.737       3.280     190.343
  O       16.503       3.962     190.696
  C       18.205       3.824     188.986
  O       17.726       2.925     187.979
  C       17.492       5.160     188.890
  O       17.371       5.614     187.548
  C       16.171       4.832     189.592
  N       15.472       6.023     190.048
  C       14.531       6.576     189.173
  O       14.416       6.137     188.032
  N       13.758       7.619     189.622
  C       14.036       8.180     190.762
  N       13.205       9.166     191.197
  C       15.188       7.778     191.594
  C       15.830       6.676     191.204
  O       18.510       5.346     194.009
  O       20.728       4.206     193.468
  H       20.422       3.762     194.283
  H       17.068       6.547     187.556
  H       15.453       8.351     192.470
  H       16.672       6.286     191.766
  H       15.508       4.266     188.923
  H       18.051       5.916     189.457
  H       19.293       3.900     188.914
  H       17.500       2.210     190.257
  H       12.402       9.384     190.621
  H       18.278       3.187     192.420
  H       13.147       9.427     192.181
  H       19.605       2.775     191.330
  P       18.627       2.701     186.666
  C       20.882       1.512     186.184
  O       20.050       2.137     187.140
  O       18.985       4.213     186.256
  O       17.970       2.009     185.516
  H       19.173       4.249     185.301
  H       21.773       1.134     186.691
  H       21.195       2.232     185.422
  H       20.365       0.673     185.711
  H       20.709       8.500     192.046
  H       19.053       8.021     192.332
  H       19.950       7.317     191.009

 3  4  5  6  7  8  9  10  11  12  13  24  27  28  29  30  32 0
 6-311+G(2d,p)
 ****
 34  35 0
 6-311+G(2d,p)
 ****
 1  2  14  15  16  17  18  19  20  21  22  23  25  26 0
 3-21G
 ****
 31  33  36  37  38  39  40  41  42  43  44  45  46 0
 3-21G
 ****


