%nproc=1
%NoSave
%Mem=1900MB
#P OB98/GEN NMR

erre ene a

0 1
  C      228.914     266.960    -437.968
  O      228.928     266.504    -439.322
  P      230.003     267.199    -440.290
  C      231.156     265.062    -441.211
  O      230.323     266.178    -441.490
  C      230.420     263.752    -441.498
  O      229.337     263.517    -440.575
  C      229.799     263.698    -442.888
  O      230.790     263.383    -443.846
  C      228.756     262.600    -442.720
  O      229.344     261.291    -442.889
  C      228.290     262.796    -441.267
  N      223.506     262.449    -439.618
  C      224.475     261.465    -439.744
  N      224.126     260.224    -439.345
  N      225.676     261.690    -440.209
  C      225.882     262.978    -440.564
  C      225.017     264.042    -440.463
  C      223.687     263.782    -439.952
  O      222.805     264.617    -439.804
  N      225.607     265.215    -440.866
  C      226.787     264.834    -441.329
  N      227.030     263.498    -441.109
  O      231.343     267.200    -439.414
  O      229.622     268.579    -440.712
  H      230.103     261.202    -442.289
  H      231.565     268.111    -439.145
  H      222.593     262.217    -439.263
  H      227.504     265.484    -441.800
  H      228.166     261.830    -440.755
  H      227.967     262.676    -443.465
  H      223.221     259.981    -438.978
  H      229.312     264.651    -443.115
  H      224.824     259.492    -439.424
  H      231.144     262.937    -441.382
  H      231.477     265.083    -440.166
  H      232.063     265.141    -441.820
  P      231.385     264.583    -444.733
  C      233.689     263.751    -445.599
  O      232.312     263.931    -445.864
  O      232.426     265.289    -443.738
  O      230.366     265.557    -445.218
  H      232.324     266.257    -443.790
  H      234.045     262.889    -446.166
  H      233.867     263.575    -444.533
  H      234.241     264.635    -445.920
  H      228.163     266.430    -437.421
  H      228.698     268.008    -437.947
  H      229.871     266.784    -437.523

 3  4  5  6  7  8  9  10  11  12  23  26  30  31 0
 6-311+G(2d,p)
 ****
 33  35  36  37  38 0
 6-311+G(2d,p)
 ****
 1  2  13  14  15  16  17  18  19  20  21  22  24  25 0
 3-21G
 ****
 27  28  29  32  34  39  40  41  42  43  44  45  46  47  48  49 0
 3-21G
 ****


