%nproc=1
%NoSave
%Mem=1900MB
#P OB98/GEN NMR

erre ene a

0 1
  C     -192.790      94.922     242.305
  O     -193.833      95.640     241.678
  H     -191.843      95.205     241.842
  H     -192.938      93.848     242.168
  H     -192.741      95.157     243.372
  P     -195.307      95.565     242.303
  C     -194.923      97.739     243.635
  O     -195.262      96.359     243.694
  C     -195.430      98.454     244.886
  O     -194.896      99.792     244.946
  C     -196.946      98.610     244.940
  O     -197.569      97.389     245.288
  C     -197.077      99.715     245.979
  O     -196.952      99.186     247.307
  C     -195.867     100.615     245.625
  N     -196.232     101.775     244.814
  C     -196.924     102.794     245.467
  O     -197.257     102.728     246.649
  N     -197.235     103.887     244.703
  C     -197.005     104.021     243.364
  O     -197.355     105.002     242.712
  C     -196.304     102.902     242.720
  C     -195.955     101.848     243.463
  O     -195.913      94.201     242.379
  O     -196.164      96.536     241.361
  H     -196.852      99.952     247.906
  H     -196.670      96.008     240.716
  H     -197.746     104.628     245.154
  H     -196.109     102.969     241.660
  H     -195.440     101.007     243.007
  H     -195.386     100.979     246.544
  H     -198.041     100.223     245.934
  H     -197.324      98.983     243.982
  H     -195.064      97.906     245.763
  H     -195.394      98.179     242.748
  H     -193.838      97.834     243.547
  P     -199.042      97.045     244.769
  C     -198.365      94.951     243.460
  O     -198.895      96.269     243.371
  O     -199.994      98.196     244.743
  O     -199.548      95.903     245.766
  H     -200.209      96.272     246.388
  H     -198.308      94.523     242.481
  H     -199.003      94.351     244.075
  H     -197.386      94.988     243.891

 6  7  8  9  10  11  12  13  14  15  16  26  31  32  33  34  35 0
 6-311+G(2d,p)
 ****
 36  37 0
 6-311+G(2d,p)
 ****
 1  2  3  4  5  17  18  19  20  21  22  23  24  25 0
 3-21G
 ****
 27  28  29  30  38  39  40  41  42  43  44  45 0
 3-21G
 ****


