%nproc=1
%NoSave
%Mem=1900MB
#P OB98/GEN NMR

erre ene a

0 1
  C      483.853      -3.424      18.182
  O      484.744      -3.590      19.267
  H      484.196      -4.010      17.325
  H      482.864      -3.781      18.481
  H      483.777      -2.368      17.905
  P      486.212      -2.966      19.098
  C      487.580      -5.175      19.092
  O      487.078      -4.085      18.335
  C      488.752      -5.836      18.364
  O      489.574      -6.536      19.337
  C      488.318      -6.855      17.304
  O      489.194      -6.752      16.178
  C      488.520      -8.193      17.996
  O      488.722      -9.255      17.068
  C      489.725      -7.896      18.883
  N      491.312     -12.500      20.418
  C      491.469     -11.832      19.255
  N      491.017     -10.602      18.929
  C      490.384     -10.039      19.972
  C      490.143     -10.595      21.217
  C      490.634     -11.898      21.424
  N      490.445     -12.600      22.591
  N      489.426      -9.719      22.008
  C      489.239      -8.654      21.254
  N      489.795      -8.802      20.015
  O      486.778      -3.012      20.599
  O      486.272      -1.594      18.519
  H      489.017     -10.045      17.568
  H      486.417      -2.258      21.103
  H      492.025     -12.355      18.482
  H      488.705      -7.761      21.553
  H      490.675      -7.978      18.341
  H      487.637      -8.431      18.603
  H      487.285      -6.713      16.978
  H      489.378      -5.051      17.926
  H      486.778      -5.909      19.234
  H      490.780     -13.548      22.633
  H      489.891     -12.190      23.329
  H      487.911      -4.813      20.072
  P      488.499      -6.605      14.737
  C      488.812      -9.043      13.919
  O      487.898      -8.029      14.307
  O      489.741      -6.399      13.747
  O      487.541      -5.459      14.651
  H      489.588      -5.628      13.173
  H      488.272      -9.930      13.661
  H      489.477      -9.253      14.730
  H      489.376      -8.710      13.073

 6  7  8  9  10  11  12  13  14  15  25  28  32  33  34  35 0
 6-311+G(2d,p)
 ****
 36  39  40 0
 6-311+G(2d,p)
 ****
 1  2  3  4  5  16  17  18  19  20  21  22  23  24 0
 3-21G
 ****
 26  27  29  30  31  37  38  41  42  43  44  45  46  47 0
 3-21G
 ****
 48 0
 3-21G
 ****


