%nproc=1
%NoSave
%Mem=1900MB
#P OB98/GEN NMR

erre ene a

0 1
  C      -82.601    -571.028    -708.481
  O      -81.464    -570.597    -709.208
  P      -80.502    -571.740    -709.821
  C      -80.341    -570.882    -712.275
  O      -80.878    -571.848    -711.375
  C      -81.046    -570.970    -713.631
  O      -82.438    -570.625    -713.479
  C      -80.508    -570.009    -714.686
  O      -79.336    -570.509    -715.311
  C      -81.664    -569.980    -715.678
  O      -81.627    -571.133    -716.512
  C      -82.876    -570.028    -714.720
  N      -87.163    -567.345    -714.328
  C      -86.987    -568.708    -714.421
  N      -88.106    -569.465    -714.480
  N      -85.816    -569.281    -714.451
  C      -84.779    -568.410    -714.421
  C      -84.830    -567.032    -714.325
  C      -86.143    -566.402    -714.284
  O      -86.353    -565.198    -714.282
  N      -83.584    -566.483    -714.292
  C      -82.759    -567.522    -714.349
  N      -83.438    -568.712    -714.471
  O      -81.086    -573.102    -709.208
  O      -79.046    -571.554    -709.517
  H      -82.325    -571.015    -717.197
  H      -80.426    -573.813    -709.283
  H      -88.092    -566.950    -714.325
  H      -81.670    -567.466    -714.330
  H      -83.690    -570.656    -715.138
  H      -81.629    -569.096    -716.329
  H      -89.037    -569.073    -714.521
  H      -80.343    -569.009    -714.265
  H      -88.004    -570.459    -714.611
  H      -80.986    -572.005    -713.988
  H      -79.260    -571.084    -712.417
  H      -80.447    -569.877    -711.858
  P      -78.007    -569.596    -715.204
  C      -76.630    -571.387    -713.921
  O      -77.254    -570.120    -713.878
  O      -78.579    -568.161    -714.762
  O      -77.183    -569.532    -716.448
  H      -77.978    -567.447    -715.061
  H      -75.948    -571.476    -713.048
  H      -76.041    -571.529    -714.831
  H      -77.382    -572.193    -713.833
  H      -83.146    -570.176    -708.134
  H      -82.287    -571.616    -707.644
  H      -83.228    -571.618    -709.116

 3  4  5  6  7  8  9  10  11  12  23  26  30  31 0
 6-311+G(2d,p)
 ****
 33  35  36  37  38 0
 6-311+G(2d,p)
 ****
 1  2  13  14  15  16  17  18  19  20  21  22  24  25 0
 3-21G
 ****
 27  28  29  32  34  39  40  41  42  43  44  45  46  47  48  49 0
 3-21G
 ****


