%nproc=1
%NoSave
%Mem=1900MB
#P OB98/GEN NMR

erre ene a

0 1
  C       48.626      18.936     -73.979
  O       47.826      20.109     -74.170
  P       46.282      19.901     -74.565
  C       46.603      19.389     -77.093
  O       46.202      18.897     -75.820
  C       46.788      18.243     -78.099
  O       47.067      18.771     -79.434
  C       47.949      17.302     -77.748
  O       47.628      15.995     -78.239
  C       49.096      17.861     -78.566
  O       50.142      16.908     -78.732
  C       48.356      18.255     -79.848
  N       52.863      19.471     -81.776
  C       52.484      18.387     -80.994
  N       53.451      17.482     -80.715
  N       51.278      18.213     -80.527
  C       50.406      19.187     -80.924
  C       50.664      20.306     -81.675
  C       52.008      20.499     -82.164
  O       52.402      21.442     -82.849
  N       49.529      21.065     -81.843
  C       48.592      20.412     -81.170
  N       49.074      19.244     -80.620
  O       45.879      21.321     -75.192
  O       45.406      19.552     -73.407
  H       50.902      17.372     -79.154
  H       45.292      21.798     -74.579
  H       53.814      19.559     -82.096
  H       47.575      20.729     -81.054
  H       48.181      17.400     -80.510
  H       49.510      18.749     -78.066
  H       54.387      17.534     -81.083
  H       48.177      17.237     -76.678
  H       53.192      16.660     -80.181
  H       45.856      17.677     -78.162
  H       47.537      19.954     -77.001
  H       45.855      20.113     -77.442
  P       47.023      14.948     -77.185
  C       49.325      14.059     -76.365
  O       48.136      14.762     -76.044
  O       47.057      13.554     -77.975
  O       45.652      15.281     -76.693
  H       46.385      12.947     -77.616
  H       50.142      14.779     -76.509
  H       49.212      13.455     -77.274
  H       49.577      13.397     -75.531
  H       49.624      19.223     -73.722
  H       48.641      18.363     -74.883
  H       48.210      18.345     -73.190

 3  4  5  6  7  8  9  10  11  12  23  26  30  31 0
 6-311+G(2d,p)
 ****
 33  35  36  37  38 0
 6-311+G(2d,p)
 ****
 1  2  13  14  15  16  17  18  19  20  21  22  24  25 0
 3-21G
 ****
 27  28  29  32  34  39  40  41  42  43  44  45  46  47  48  49 0
 3-21G
 ****


