%nproc=1
%NoSave
%Mem=1900MB
#P OB98/GEN NMR

erre ene a

0 1
  C      635.651     521.714    1561.318
  O      635.640     522.347    1562.606
  P      636.919     522.495    1563.563
  C      637.331     525.107    1563.509
  O      637.719     523.804    1563.105
  C      638.121     526.187    1562.774
  O      639.541     526.073    1563.168
  C      638.080     526.033    1561.236
  O      637.912     527.268    1560.569
  C      639.322     525.228    1560.929
  O      639.757     525.332    1559.575
  C      640.296     525.761    1561.987
  N      644.572     523.361    1560.452
  C      643.719     524.178    1559.740
  N      643.993     524.373    1558.424
  N      642.648     524.732    1560.234
  C      642.409     524.377    1561.513
  C      643.188     523.587    1562.358
  C      644.390     523.028    1561.788
  O      645.193     522.315    1562.377
  N      642.619     523.474    1563.620
  C      641.547     524.188    1563.535
  N      641.333     524.779    1562.322
  O      637.712     521.257    1563.827
  O      636.237     522.967    1564.963
  H      640.615     524.851    1559.537
  H      636.822     522.597    1565.661
  H      645.402     522.977    1560.002
  H      640.841     524.337    1564.385
  H      640.812     526.659    1561.673
  H      639.107     524.167    1561.113
  H      644.764     523.880    1557.938
  H      637.186     525.467    1560.937
  H      643.245     524.759    1557.853
  H      637.763     527.191    1563.105
  H      637.497     525.152    1564.573
  H      636.238     525.230    1563.353
  P      636.857     527.690    1559.402
  C      635.582     529.392    1560.847
  O      635.511     528.138    1560.134
  O      636.420     526.265    1558.755
  O      637.393     528.619    1558.375
  H      636.662     526.300    1557.820
  H      634.685     529.458    1561.514
  H      635.547     530.221    1560.134
  H      636.461     529.422    1561.469
  H      634.670     521.752    1560.893
  H      635.954     520.693    1561.425
  H      636.338     522.225    1560.675

 3  4  5  6  7  8  9  10  11  12  23  26  30  31 0
 6-311+G(2d,p)
 ****
 33  35  36  37  38 0
 6-311+G(2d,p)
 ****
 1  2  13  14  15  16  17  18  19  20  21  22  24  25 0
 3-21G
 ****
 27  28  29  32  34  39  40  41  42  43  44  45  46  47  48  49 0
 3-21G
 ****


