%nproc=1
%NoSave
%Mem=1900MB
#P OB98/GEN NMR

erre ene a

0 1
  C     -325.387    -110.861      26.004
  O     -326.217    -111.965      25.706
  H     -324.965    -110.481      25.069
  H     -324.565    -111.166      26.657
  H     -325.964    -110.061      26.476
  P     -326.960    -112.711      26.917
  C     -325.882    -114.054      28.852
  O     -325.865    -113.755      27.466
  C     -324.619    -114.820      29.240
  O     -323.432    -114.056      28.941
  C     -324.500    -115.144      30.726
  O     -325.364    -116.181      31.157
  C     -323.038    -115.550      30.788
  O     -322.877    -116.870      30.238
  C     -322.396    -114.478      29.874
  N     -321.882    -113.332      30.623
  C     -320.542    -113.396      31.023
  O     -319.851    -114.378      30.755
  N     -320.020    -112.353      31.753
  C     -320.774    -111.350      32.075
  N     -320.205    -110.349      32.803
  C     -322.195    -111.252      31.694
  C     -322.679    -112.263      30.974
  O     -328.300    -113.292      26.605
  O     -326.991    -111.629      28.097
  H     -323.356    -117.480      30.828
  H     -327.450    -112.038      28.870
  H     -322.788    -110.407      32.012
  H     -323.716    -112.267      30.661
  H     -321.580    -114.908      29.281
  H     -322.639    -115.571      31.803
  H     -324.636    -114.244      31.336
  H     -324.582    -115.729      28.626
  H     -319.228    -110.444      33.050
  H     -326.778    -114.647      29.062
  H     -320.735    -109.569      33.162
  H     -325.920    -113.132      29.435
  P     -326.161    -115.939      32.531
  C     -325.342    -115.770      35.005
  O     -325.150    -116.321      33.712
  O     -327.236    -117.122      32.538
  O     -326.792    -114.590      32.671
  H     -328.105    -116.801      32.230
  H     -324.580    -116.131      35.663
  H     -326.302    -116.060      35.378
  H     -325.289    -114.703      34.949

 6  7  8  9  10  11  12  13  14  15  16  26  30  31  32  33  35 0
 6-311+G(2d,p)
 ****
 37  38 0
 6-311+G(2d,p)
 ****
 1  2  3  4  5  17  18  19  20  21  22  23  24  25 0
 3-21G
 ****
 27  28  29  34  36  39  40  41  42  43  44  45  46 0
 3-21G
 ****


