%nproc=1
%NoSave
%Mem=1900MB
#P OB98/GEN NMR

erre ene a

0 1
  C     -105.524      45.116     -88.829
  O     -105.684      46.519     -88.748
  H     -104.714      44.803     -88.166
  H     -106.451      44.637     -88.502
  H     -105.309      44.807     -89.855
  P     -104.568      47.428     -89.457
  C     -104.292      49.450     -87.852
  O     -104.890      48.946     -89.038
  C     -105.332      50.174     -86.997
  O     -106.229      49.181     -86.420
  C     -104.738      50.997     -85.842
  O     -105.496      52.204     -85.710
  C     -104.988      50.121     -84.626
  O     -105.059      50.868     -83.415
  C     -106.305      49.449     -85.010
  N     -107.069      47.630     -80.323
  C     -107.185      48.872     -80.837
  N     -107.014      49.263     -82.117
  C     -106.759      48.206     -82.907
  C     -106.618      46.881     -82.529
  C     -106.769      46.607     -81.158
  N     -106.586      45.356     -80.612
  N     -106.300      46.098     -83.622
  C     -106.225      46.939     -84.634
  N     -106.494      48.224     -84.252
  O     -105.001      47.363     -90.999
  O     -103.158      46.990     -89.252
  H     -105.192      50.249     -82.671
  H     -104.589      46.587     -91.421
  H     -107.437      49.657     -80.130
  H     -105.955      46.679     -85.648
  H     -107.175      50.091     -84.825
  H     -104.181      49.385     -84.533
  H     -103.677      51.238     -85.971
  H     -105.939      50.811     -87.652
  H     -103.501      50.158     -88.123
  H     -106.607      45.276     -79.606
  H     -106.253      44.608     -81.203
  H     -103.846      48.623     -87.292
  P     -104.682      53.563     -85.460
  C     -105.959      54.404     -83.348
  O     -105.648      54.607     -84.724
  O     -104.525      54.176     -86.929
  O     -103.354      53.360     -84.802
  H     -103.686      54.661     -87.005
  H     -106.610      55.183     -83.011
  H     -105.057      54.419     -82.772
  H     -106.443      53.457     -83.228

 6  7  8  9  10  11  12  13  14  15  25  28  32  33  34  35 0
 6-311+G(2d,p)
 ****
 36  39  40 0
 6-311+G(2d,p)
 ****
 1  2  3  4  5  16  17  18  19  20  21  22  23  24 0
 3-21G
 ****
 26  27  29  30  31  37  38  41  42  43  44  45  46  47 0
 3-21G
 ****
 48 0
 3-21G
 ****


