%nproc=1
%NoSave
%Mem=1900MB
#P OB98/GEN NMR

erre ene a

0 1
  C     1225.730    -143.354    1752.272
  O     1226.180    -142.490    1751.230
  H     1226.213    -143.047    1753.198
  H     1225.993    -144.375    1752.032
  H     1224.648    -143.265    1752.383
  P     1225.599    -142.768    1749.757
  C     1227.217    -144.701    1749.109
  O     1226.833    -143.346    1748.890
  C     1228.435    -145.050    1748.242
  O     1228.025    -145.265    1746.863
  C     1229.532    -143.994    1748.225
  O     1230.378    -144.113    1749.365
  C     1230.242    -144.322    1746.906
  O     1231.169    -145.427    1747.083
  C     1229.069    -144.738    1746.005
  N     1229.967    -141.643    1742.087
  C     1230.719    -142.706    1742.583
  N     1231.912    -142.951    1741.992
  N     1230.330    -143.456    1743.609
  C     1229.157    -143.090    1744.116
  C     1228.305    -142.086    1743.699
  C     1228.724    -141.251    1742.552
  O     1228.096    -140.358    1742.024
  N     1227.178    -142.043    1744.462
  C     1227.335    -142.975    1745.357
  N     1228.527    -143.634    1745.205
  O     1225.375    -141.299    1749.148
  O     1224.341    -143.571    1749.716
  H     1230.673    -146.182    1747.468
  H     1224.632    -141.321    1748.520
  H     1230.326    -141.143    1741.308
  H     1226.627    -143.193    1746.155
  H     1229.343    -145.518    1745.298
  H     1230.839    -143.482    1746.552
  H     1232.385    -142.239    1741.473
  H     1229.082    -142.981    1748.154
  H     1232.475    -143.708    1742.379
  H     1228.824    -146.016    1748.626
  H     1226.386    -145.372    1748.850
  H     1227.455    -144.836    1750.175
  P     1230.761    -142.744    1750.149
  C     1232.940    -142.246    1748.785
  O     1232.339    -142.594    1750.053
  O     1230.507    -143.112    1751.692
  O     1229.966    -141.557    1749.727
  H     1230.431    -142.322    1752.216
  H     1234.002    -142.187    1748.898
  H     1232.563    -141.299    1748.459
  H     1232.700    -142.994    1748.059

 6  7  8  9  10  11  12  13  14  15  26  29  33  34 0
 6-311+G(2d,p)
 ****
 36  38  39  40  41 0
 6-311+G(2d,p)
 ****
 1  2  3  4  5  16  17  18  19  20  21  22  23  24  25 0
 3-21G
 ****
 27  28  30  31  32  35  37  42  43  44  45  46  47 0
 3-21G
 ****
 48  49 0
 3-21G
 ****


