%nproc=1
%NoSave
%Mem=1900MB
#P OB98/GEN NMR

erre ene a

0 1
  C     -500.300    -153.043     217.424
  O     -499.424    -151.922     217.580
  P     -499.111    -151.431     219.075
  C     -499.379    -148.828     218.931
  O     -498.510    -149.953     218.927
  C     -498.591    -147.555     218.634
  O     -497.433    -147.460     219.502
  C     -498.042    -147.475     217.221
  O     -499.067    -147.177     216.284
  C     -496.985    -146.390     217.377
  O     -497.594    -145.091     217.346
  C     -496.437    -146.681     218.794
  N     -495.146    -147.351     218.778
  C     -494.079    -146.628     219.302
  O     -494.194    -145.482     219.737
  N     -492.867    -147.260     219.297
  C     -492.612    -148.506     218.800
  O     -491.505    -149.027     218.829
  C     -493.768    -149.203     218.210
  C     -494.962    -148.605     218.228
  O     -497.849    -152.339     219.438
  O     -500.279    -151.573     219.991
  H     -497.266    -152.503     218.677
  H     -497.996    -144.992     216.454
  H     -492.082    -146.755     219.686
  H     -493.602    -150.183     217.787
  H     -495.824    -149.104     217.795
  H     -496.330    -145.746     219.356
  H     -496.231    -146.418     216.585
  H     -497.559    -148.425     216.954
  H     -499.241    -146.692     218.839
  H     -499.860    -148.734     219.911
  H     -500.169    -148.987     218.189
  P     -499.157    -148.125     214.988
  C     -499.580    -146.249     213.212
  O     -500.085    -147.356     213.931
  O     -500.094    -149.307     215.531
  O     -497.830    -148.576     214.474
  H     -500.853    -148.987     216.045
  H     -500.200    -146.092     212.328
  H     -498.548    -146.422     212.889
  H     -499.622    -145.356     213.838
  H     -500.420    -153.260     216.383
  H     -501.253    -152.813     217.852
  H     -499.882    -153.894     217.920

 3  4  5  6  7  8  9  10  11  12  13  24  28  29  30  31  32 0
 6-311+G(2d,p)
 ****
 33  34 0
 6-311+G(2d,p)
 ****
 1  2  14  15  16  17  18  19  20  21  22  23  25  26  27 0
 3-21G
 ****
 35  36  37  38  39  40  41  42  43  44  45 0
 3-21G
 ****


