%nproc=1
%NoSave
%Mem=1900MB
#P OB98/GEN NMR

erre ene a

0 1
  C     -151.895     -88.824     -59.809
  O     -152.231     -87.453     -59.761
  H     -152.309     -89.252     -60.726
  H     -152.318     -89.358     -58.953
  H     -150.809     -88.947     -59.827
  P     -151.836     -86.618     -58.447
  C     -154.139     -87.141     -57.377
  O     -152.729     -87.274     -57.280
  C     -154.771     -87.206     -55.989
  O     -154.884     -88.571     -55.533
  C     -153.985     -86.493     -54.891
  O     -154.079     -85.080     -54.956
  C     -154.672     -87.067     -53.661
  O     -155.949     -86.432     -53.483
  C     -154.846     -88.549     -54.077
  N     -153.773     -89.410     -53.583
  C     -153.517     -89.366     -52.205
  O     -154.177     -88.631     -51.471
  N     -152.492     -90.129     -51.696
  C     -151.773     -90.856     -52.493
  N     -150.741     -91.556     -51.944
  C     -152.018     -90.946     -53.946
  C     -153.016     -90.204     -54.419
  O     -151.924     -85.129     -58.558
  O     -150.372     -87.142     -58.067
  H     -156.249     -86.642     -52.579
  H     -150.077     -86.647     -57.265
  H     -151.382     -91.563     -54.567
  H     -153.246     -90.202     -55.480
  H     -155.805     -88.943     -53.725
  H     -154.100     -86.919     -52.739
  H     -152.938     -86.817     -54.890
  H     -155.794     -86.812     -56.072
  H     -150.578     -91.437     -50.954
  H     -154.514     -87.945     -58.017
  H     -149.982     -91.913     -52.516
  H     -154.397     -86.178     -57.828
  P     -152.847     -84.219     -54.387
  C     -154.347     -83.899     -52.282
  O     -153.046     -84.124     -52.798
  O     -153.178     -82.741     -54.901
  O     -151.486     -84.680     -54.806
  H     -152.731     -82.553     -55.748
  H     -154.306     -83.863     -51.213
  H     -154.994     -84.695     -52.587
  H     -154.723     -82.970     -52.656

 6  7  8  9  10  11  12  13  14  15  16  26  30  31  32  33  35 0
 6-311+G(2d,p)
 ****
 37  38 0
 6-311+G(2d,p)
 ****
 1  2  3  4  5  17  18  19  20  21  22  23  24  25 0
 3-21G
 ****
 27  28  29  34  36  39  40  41  42  43  44  45  46 0
 3-21G
 ****


