%nproc=1
%NoSave
%Mem=1900MB
#P OB98/GEN NMR

erre ene a

0 1
  C     -217.099    1334.269    -365.947
  O     -217.946    1333.293    -366.511
  P     -218.323    1331.950    -365.723
  C     -220.594    1332.881    -364.956
  O     -219.303    1332.427    -364.546
  C     -221.609    1331.734    -364.829
  O     -221.564    1331.235    -363.477
  C     -223.074    1332.117    -365.069
  O     -223.459    1332.135    -366.437
  C     -223.784    1330.980    -364.346
  O     -223.775    1329.795    -365.176
  C     -222.888    1330.770    -363.117
  N     -226.883    1331.517    -360.016
  C     -226.707    1330.690    -361.082
  N     -225.623    1330.564    -361.859
  C     -224.630    1331.364    -361.437
  C     -224.660    1332.249    -360.362
  C     -225.867    1332.298    -359.641
  N     -226.032    1333.130    -358.533
  N     -223.457    1332.902    -360.245
  C     -222.702    1332.422    -361.207
  N     -223.367    1331.491    -361.956
  O     -217.150    1331.139    -365.295
  O     -219.293    1331.159    -366.716
  H     -224.183    1329.074    -364.650
  H     -219.363    1330.225    -366.445
  H     -227.556    1330.058    -361.338
  H     -221.693    1332.741    -361.411
  H     -222.799    1329.706    -362.845
  H     -224.827    1331.197    -364.127
  H     -223.325    1333.066    -364.576
  H     -221.308    1330.919    -365.498
  H     -220.536    1333.184    -366.003
  H     -226.878    1332.989    -358.002
  H     -225.227    1333.572    -358.154
  H     -220.892    1333.738    -364.355
  P     -223.956    1333.538    -367.046
  C     -221.658    1333.823    -368.272
  O     -222.610    1334.348    -367.362
  O     -224.956    1334.268    -366.212
  O     -224.498    1333.126    -368.492
  H     -223.821    1332.818    -369.119
  H     -220.905    1334.586    -368.480
  H     -222.130    1333.525    -369.215
  H     -221.154    1332.955    -367.830
  H     -216.980    1335.079    -366.636
  H     -216.144    1333.835    -365.738
  H     -217.531    1334.634    -365.039

 3  4  5  6  7  8  9  10  11  12  22  25  29  30  31  32 0
 6-311+G(2d,p)
 ****
 33  36  37 0
 6-311+G(2d,p)
 ****
 1  2  13  14  15  16  17  18  19  20  21  23  24  26 0
 3-21G
 ****
 27  28  34  35  38  39  40  41  42  43  44  45  46  47  48 0
 3-21G
 ****


