%nproc=1
%NoSave
%Mem=1900MB
#P OB98/GEN NMR

erre ene a

0 1
  C     -359.394    -245.579    -606.781
  O     -358.637    -246.168    -607.837
  P     -358.445    -245.334    -609.193
  C     -359.222    -247.202    -610.800
  O     -358.144    -246.369    -610.394
  C     -358.710    -248.616    -611.137
  O     -358.823    -249.442    -609.942
  C     -359.508    -249.353    -612.221
  O     -359.106    -249.183    -613.584
  C     -359.226    -250.805    -611.868
  O     -357.962    -251.213    -612.420
  C     -359.135    -250.793    -610.342
  N     -361.419    -254.680    -607.896
  C     -360.176    -254.536    -608.417
  N     -359.647    -253.472    -609.055
  C     -360.536    -252.464    -609.117
  C     -361.832    -252.461    -608.623
  C     -362.276    -253.630    -607.997
  N     -363.543    -253.774    -607.471
  N     -362.445    -251.245    -608.887
  C     -361.536    -250.546    -609.540
  N     -360.362    -251.231    -609.687
  O     -357.530    -244.161    -609.114
  O     -359.947    -244.866    -609.526
  H     -358.092    -251.270    -613.388
  H     -359.917    -243.963    -609.900
  H     -359.524    -255.404    -608.314
  H     -361.687    -249.547    -609.918
  H     -358.331    -251.436    -609.960
  H     -359.981    -251.494    -612.272
  H     -360.582    -249.143    -612.129
  H     -357.655    -248.566    -611.413
  H     -359.700    -246.769    -611.685
  H     -363.791    -254.665    -607.071
  H     -364.212    -253.028    -607.585
  H     -359.966    -247.199    -610.005
  P     -360.170    -249.240    -614.779
  C     -359.677    -251.623    -615.725
  O     -359.539    -250.239    -615.872
  O     -360.592    -247.919    -615.314
  O     -361.356    -250.117    -614.149
  H     -361.126    -251.040    -613.987
  H     -359.376    -252.108    -616.662
  H     -360.720    -251.901    -615.516
  H     -359.025    -251.982    -614.924
  H     -359.432    -246.253    -605.951
  H     -360.388    -245.379    -607.123
  H     -358.930    -244.664    -606.477

 3  4  5  6  7  8  9  10  11  12  22  25  29  30  31  32 0
 6-311+G(2d,p)
 ****
 33  36  37 0
 6-311+G(2d,p)
 ****
 1  2  13  14  15  16  17  18  19  20  21  23  24  26 0
 3-21G
 ****
 27  28  34  35  38  39  40  41  42  43  44  45  46  47  48 0
 3-21G
 ****


