%nproc=1
%NoSave
%Mem=1900MB
#P OB98/GEN NMR

erre ene a

0 1
  C      -97.920    -234.078     -43.263
  O      -97.144    -232.909     -43.511
  P      -97.614    -231.524     -42.860
  C      -98.804    -230.361     -44.917
  O      -98.885    -230.959     -43.644
  C      -99.942    -229.337     -45.070
  O     -101.221    -229.992     -44.947
  C      -99.902    -228.230     -44.021
  O      -99.065    -227.159     -44.410
  C     -101.365    -227.848     -43.913
  O     -101.749    -227.016     -45.023
  C     -102.046    -229.235     -44.017
  N     -102.212    -230.024     -42.776
  C     -103.458    -230.099     -42.161
  O     -104.469    -229.536     -42.577
  N     -103.525    -230.864     -41.026
  C     -102.546    -231.685     -40.548
  O     -102.681    -232.396     -39.560
  C     -101.299    -231.686     -41.317
  C     -101.183    -230.865     -42.367
  O      -96.444    -230.507     -43.243
  O      -97.841    -231.585     -41.380
  H     -101.376    -227.417     -45.827
  H      -95.985    -230.195     -42.441
  H     -104.401    -230.872     -40.527
  H     -100.510    -232.355     -41.003
  H     -100.262    -230.855     -42.943
  H     -103.044    -229.141     -44.463
  H     -101.556    -227.264     -43.016
  H      -99.591    -228.636     -43.053
  H      -99.880    -228.900     -46.075
  H      -98.869    -231.112     -45.707
  H      -97.833    -229.864     -45.030
  P      -97.549    -227.102     -43.898
  C      -98.249    -226.699     -41.465
  O      -97.592    -227.570     -42.363
  O      -96.813    -225.832     -44.168
  O      -96.862    -228.359     -44.623
  H      -96.405    -228.077     -45.450
  H      -98.348    -227.202     -40.499
  H      -99.247    -226.445     -41.836
  H      -97.661    -225.788     -41.333
  H      -97.477    -234.913     -43.764
  H      -98.915    -233.930     -43.628
  H      -97.951    -234.269     -42.211

 3  4  5  6  7  8  9  10  11  12  13  23  28  29  30  31  32 0
 6-311+G(2d,p)
 ****
 33  34 0
 6-311+G(2d,p)
 ****
 1  2  14  15  16  17  18  19  20  21  22  24  25  26  27 0
 3-21G
 ****
 35  36  37  38  39  40  41  42  43  44  45 0
 3-21G
 ****


