%nproc=1
%NoSave
%Mem=1900MB
#P OB98/GEN NMR

erre ene a

0 1
  C       89.962    -248.135     126.923
  O       90.781    -247.146     127.516
  H       88.995    -248.176     127.430
  H       89.799    -247.872     125.875
  H       90.452    -249.112     126.971
  P       91.165    -247.364     129.059
  C       92.287    -249.268     130.420
  O       91.841    -248.817     129.150
  C       92.469    -250.781     130.406
  O       91.195    -251.434     130.236
  C       93.353    -251.308     129.280
  O       94.733    -251.158     129.580
  C       92.944    -252.771     129.259
  O       93.606    -253.478     130.324
  C       91.436    -252.687     129.540
  N       89.388    -255.703     125.951
  C       90.091    -255.981     127.068
  N       90.587    -255.126     127.987
  C       90.271    -253.859     127.670
  C       89.542    -253.420     126.577
  C       89.092    -254.404     125.685
  N       88.430    -254.100     124.504
  N       89.438    -252.042     126.580
  C       90.109    -251.658     127.646
  N       90.624    -252.720     128.339
  O       89.734    -247.563     129.755
  O       91.935    -246.251     129.686
  H       93.669    -252.858     131.075
  H       89.445    -246.716     130.140
  H       90.289    -257.033     127.249
  H       90.252    -250.631     127.951
  H       91.093    -253.493     130.198
  H       93.204    -253.277     128.325
  H       93.095    -250.850     128.320
  H       92.866    -251.083     131.385
  H       91.547    -249.000     131.184
  H       88.580    -254.784     123.768
  H       88.478    -253.124     124.238
  H       93.234    -248.773     130.656
  P       95.749    -250.999     128.348
  C       96.211    -249.111     126.640
  O       95.268    -249.708     127.522
  O       95.355    -252.228     127.401
  O       97.196    -251.038     128.708
  H       96.143    -252.780     127.231
  H       95.764    -248.267     126.157
  H       96.512    -249.826     125.903
  H       97.067    -248.791     127.197

 6  7  8  9  10  11  12  13  14  15  25  28  32  33  34  35 0
 6-311+G(2d,p)
 ****
 36  39  40 0
 6-311+G(2d,p)
 ****
 1  2  3  4  5  16  17  18  19  20  21  22  23  24 0
 3-21G
 ****
 26  27  29  30  31  37  38  41  42  43  44  45  46  47  48 0
 3-21G
 ****


