%nproc=1
%NoSave
%Mem=1900MB
#P OB98/GEN NMR

erre ene a

0 1
  C     -626.737     313.614     532.133
  O     -626.287     312.731     533.184
  P     -624.702     312.606     533.410
  C     -624.524     310.209     534.447
  O     -624.527     311.610     534.650
  C     -624.953     309.491     535.733
  O     -624.161     309.947     536.858
  C     -626.390     309.719     536.119
  O     -627.292     308.995     535.295
  C     -626.374     309.291     537.579
  O     -626.456     307.853     537.675
  C     -624.974     309.767     538.043
  N     -625.027     310.982     538.843
  C     -624.858     310.811     540.208
  O     -624.688     309.710     540.737
  N     -624.882     311.960     540.959
  C     -625.105     313.225     540.508
  O     -625.120     314.207     541.213
  C     -625.338     313.333     539.049
  C     -625.280     312.226     538.299
  O     -624.368     314.058     533.995
  O     -623.961     312.246     532.173
  H     -625.077     314.411     534.568
  H     -625.715     307.493     537.143
  H     -624.744     311.856     541.960
  H     -625.540     314.314     538.649
  H     -625.460     312.294     537.219
  H     -624.481     308.990     538.627
  H     -627.210     309.702     538.155
  H     -626.631     310.798     536.057
  H     -624.766     308.414     535.586
  H     -623.523     309.872     534.161
  H     -625.191     309.976     533.614
  P     -628.226     309.843     534.303
  C     -630.516     308.565     534.392
  O     -629.292     308.820     533.699
  O     -627.229     310.101     533.074
  O     -628.792     311.083     534.909
  H     -626.706     309.308     532.833
  H     -631.229     308.138     533.688
  H     -630.918     309.477     534.813
  H     -630.331     307.835     535.183
  H     -627.806     313.603     532.091
  H     -626.340     313.284     531.196
  H     -626.398     314.609     532.333

 3  4  5  6  7  8  9  10  11  12  13  24  28  29  30  31  32 0
 6-311+G(2d,p)
 ****
 33  34 0
 6-311+G(2d,p)
 ****
 1  2  14  15  16  17  18  19  20  21  22  23  25  26  27 0
 3-21G
 ****
 35  36  37  38  39  40  41  42  43  44  45 0
 3-21G
 ****


