%nproc=1
%NoSave
%Mem=1900MB
#P OB98/GEN NMR

erre ene a

0 1
  C     -179.908     186.705     158.964
  O     -180.576     187.749     158.276
  P     -179.773     189.044     157.778
  C     -180.395     190.540     159.774
  O     -179.348     189.854     159.098
  C     -180.649     191.902     159.130
  O     -181.690     192.582     159.872
  C     -179.422     192.810     159.130
  O     -179.418     193.581     157.926
  C     -179.652     193.753     160.299
  O     -178.958     194.998     160.106
  C     -181.179     193.856     160.308
  N     -184.217     196.937     163.074
  C     -183.933     196.904     161.752
  N     -183.097     196.075     161.090
  C     -182.566     195.173     161.929
  C     -182.761     195.079     163.299
  C     -183.631     196.020     163.880
  N     -183.926     196.044     165.226
  N     -182.021     194.041     163.829
  C     -181.406     193.509     162.797
  N     -181.711     194.150     161.624
  O     -180.468     189.863     156.747
  O     -178.379     188.471     157.243
  H     -178.010     194.783     159.980
  H     -178.096     188.961     156.447
  H     -184.444     197.648     161.146
  H     -180.726     192.670     162.841
  H     -181.536     194.624     159.609
  H     -179.272     193.294     161.219
  H     -178.481     192.255     159.222
  H     -181.019     191.746     158.111
  H     -180.097     190.685     160.816
  H     -184.652     196.673     165.529
  H     -183.631     195.258     165.792
  H     -181.303     189.928     159.754
  P     -178.007     194.249     157.520
  C     -178.794     196.501     158.566
  O     -177.831     195.470     158.541
  O     -177.934     194.560     156.063
  O     -176.978     193.129     158.023
  H     -177.365     192.583     158.742
  H     -178.482     197.256     159.292
  H     -179.764     196.102     158.878
  H     -178.884     196.969     157.583
  H     -180.609     185.935     159.211
  H     -179.471     187.091     159.861
  H     -179.140     186.300     158.339

 3  4  5  6  7  8  9  10  11  12  22  25  29  30  31  32 0
 6-311+G(2d,p)
 ****
 33  36  37 0
 6-311+G(2d,p)
 ****
 1  2  13  14  15  16  17  18  19  20  21  23  24  26 0
 3-21G
 ****
 27  28  34  35  38  39  40  41  42  43  44  45  46  47  48 0
 3-21G
 ****


