%nproc=1
%NoSave
%Mem=1900MB
#P OB98/GEN NMR

erre ene a

0 1
  C       53.484     304.641    -128.928
  O       52.890     304.513    -127.630
  P       52.631     303.083    -126.947
  C       54.129     303.871    -125.005
  O       53.801     302.800    -125.886
  C       54.801     303.365    -123.724
  O       53.916     302.496    -122.991
  C       56.082     302.569    -123.954
  O       57.168     303.434    -124.220
  C       56.184     301.787    -122.647
  O       56.753     302.609    -121.613
  C       54.711     301.485    -122.342
  N       54.732     296.510    -121.159
  C       55.194     297.596    -120.503
  N       55.156     298.890    -120.886
  C       54.540     299.014    -122.074
  C       54.020     297.997    -122.861
  C       54.135     296.689    -122.360
  N       53.675     295.583    -123.037
  N       53.487     298.506    -124.026
  C       53.664     299.810    -123.936
  N       54.296     300.164    -122.776
  O       52.404     301.972    -127.919
  O       51.339     303.302    -126.025
  H       56.889     302.042    -120.833
  H       50.857     302.460    -125.931
  H       55.661     297.400    -119.541
  H       53.352     300.532    -124.678
  H       54.497     301.560    -121.270
  H       56.810     300.893    -122.737
  H       55.942     301.868    -124.785
  H       55.004     304.235    -123.087
  H       53.206     304.403    -124.749
  H       53.826     294.676    -122.626
  H       53.272     295.703    -123.955
  H       54.800     304.560    -125.530
  P       57.924     303.366    -125.631
  C       57.303     305.844    -125.849
  O       57.394     304.596    -126.510
  O       57.897     302.038    -126.313
  O       59.423     303.806    -125.277
  H       60.040     303.374    -125.898
  H       56.385     305.875    -125.253
  H       57.265     306.637    -126.601
  H       58.166     306.010    -125.201
  H       53.562     305.677    -129.184
  H       52.874     304.140    -129.650
  H       54.460     304.202    -128.919

 3  4  5  6  7  8  9  10  11  12  22  25  29  30  31  32 0
 6-311+G(2d,p)
 ****
 33  36  37 0
 6-311+G(2d,p)
 ****
 1  2  13  14  15  16  17  18  19  20  21  23  24  26 0
 3-21G
 ****
 27  28  34  35  38  39  40  41  42  43  44  45  46  47  48 0
 3-21G
 ****


