%nproc=1
%NoSave
%Mem=1900MB
#P OB98/GEN NMR

erre ene a

0 1
  C      222.872     265.247      -8.666
  O      222.131     264.036      -8.569
  P      220.592     264.076      -9.022
  C      219.096     262.567     -10.516
  O      220.403     262.831     -10.017
  C      218.925     261.083     -10.818
  O      219.817     260.698     -11.874
  C      219.254     260.162      -9.653
  O      218.174     260.065      -8.733
  C      219.474     258.841     -10.378
  O      218.202     258.217     -10.646
  C      220.135     259.293     -11.691
  N      224.019     256.598     -13.504
  C      222.662     256.468     -13.737
  N      222.294     255.493     -14.598
  N      221.753     257.217     -13.176
  C      222.271     258.174     -12.371
  C      223.594     258.403     -12.059
  C      224.589     257.534     -12.648
  O      225.794     257.563     -12.430
  N      223.728     259.477     -11.215
  C      222.500     259.921     -11.047
  N      221.575     259.143     -11.702
  O      220.530     265.342      -9.999
  O      219.606     264.184      -7.908
  H      217.818     257.974      -9.781
  H      219.626     265.704     -10.021
  H      224.675     256.006     -13.977
  H      222.233     260.792     -10.462
  H      219.720     258.754     -12.551
  H      220.064     258.129      -9.798
  H      222.952     254.972     -15.157
  H      220.181     260.467      -9.154
  H      221.304     255.402     -14.807
  H      217.897     260.923     -11.163
  H      218.936     263.139     -11.439
  H      218.361     262.897      -9.772
  P      218.518     259.454      -7.285
  C      217.374     259.709      -4.965
  O      217.568     260.239      -6.263
  O      219.976     260.029      -6.979
  O      218.468     257.965      -7.221
  H      220.451     259.439      -6.364
  H      218.286     259.243      -4.585
  H      216.571     258.969      -4.988
  H      217.089     260.519      -4.290
  H      223.875     265.079      -8.334
  H      222.414     265.995      -8.053
  H      222.883     265.578      -9.684

 3  4  5  6  7  8  9  10  11  12  23  26  30  31  33  0
 6-311+G(2d,p)
 ****
 35  36  37  38 0
 6-311+G(2d,p)
 ****
 1  2  13  14  15  16  17  18  19  20  21  22  24  25  27  28  29 0
 3-21G
 ****
 32  34  39  40  41  42  43  44  45  46  47  48  49 0
 3-21G
 ****


