%nproc=1
%NoSave
%Mem=1900MB
#P OB98/GEN NMR

erre ene a

0 1
  C     -138.567     767.084    -395.368
  O     -137.670     766.622    -396.357
  H     -137.989     767.449    -394.514
  H     -139.229     766.285    -395.030
  H     -139.162     767.924    -395.755
  P     -138.278     765.999    -397.705
  C     -136.286     766.629    -399.222
  O     -137.013     765.574    -398.609
  C     -135.690     766.150    -400.552
  O     -134.666     765.175    -400.320
  C     -136.707     765.497    -401.493
  O     -137.433     766.486    -402.202
  C     -135.771     764.710    -402.397
  O     -135.132     765.595    -403.337
  C     -134.734     764.185    -401.380
  N     -135.387     759.222    -402.295
  C     -135.222     760.265    -403.178
  N     -135.271     759.961    -404.484
  N     -135.036     761.516    -402.818
  C     -135.085     761.695    -401.466
  C     -135.268     760.735    -400.496
  C     -135.406     759.355    -400.894
  O     -135.524     758.390    -400.156
  N     -135.349     761.301    -399.241
  C     -135.169     762.599    -399.457
  N     -135.021     762.890    -400.803
  O     -139.292     766.838    -398.421
  O     -138.887     764.587    -397.249
  H     -134.762     766.348    -402.811
  H     -139.824     764.666    -397.006
  H     -135.542     758.290    -402.628
  H     -135.140     763.353    -398.692
  H     -133.725     764.112    -401.823
  H     -136.286     763.940    -402.968
  H     -135.548     759.044    -404.834
  H     -137.358     764.800    -400.961
  H     -135.202     760.724    -405.159
  H     -135.202     767.025    -401.032
  H     -135.484     766.929    -398.537
  H     -136.932     767.497    -399.410
  P     -139.017     766.364    -402.418
  C     -140.021     768.672    -403.008
  O     -139.400     767.492    -403.499
  O     -139.829     766.402    -401.172
  O     -139.202     765.025    -403.271
  H     -139.239     764.205    -402.715
  H     -140.222     769.335    -403.823
  H     -139.370     769.153    -402.309
  H     -140.939     768.416    -402.522

 6  7  8  9  10  11  12  13  14  15  26  29  33  34 0
 6-311+G(2d,p)
 ****
 36  38  39  40  41 0
 6-311+G(2d,p)
 ****
 1  2  3  4  5  16  17  18  19  20  21  22  23  24  25 0
 3-21G
 ****
 27  28  30  31  32  35  37  42  43  44  45  46  47 0
 3-21G
 ****
 48  49 0
 3-21G
 ****


