%nproc=1
%NoSave
%Mem=1900MB
#P OB98/GEN NMR

erre ene a

0 1
  C      187.628     448.515    -160.292
  O      187.501     447.485    -159.343
  P      187.138     445.988    -159.800
  C      184.642     446.528    -159.451
  O      185.621     446.044    -160.352
  C      183.293     446.646    -160.153
  O      183.338     447.647    -161.204
  C      182.852     445.377    -160.867
  O      182.557     444.251    -160.067
  C      181.737     445.905    -161.753
  O      180.515     446.040    -161.033
  C      182.302     447.291    -162.156
  N      182.793     447.311    -163.533
  C      181.819     447.360    -164.526
  O      180.612     447.389    -164.294
  N      182.285     447.340    -165.816
  C      183.590     447.239    -166.199
  O      183.935     447.176    -167.377
  C      184.570     447.166    -165.106
  C      184.138     447.212    -163.839
  O      187.384     444.932    -158.787
  O      187.981     445.804    -161.155
  H      179.864     446.443    -161.648
  H      187.769     446.440    -161.863
  H      181.595     447.365    -166.548
  H      185.617     447.099    -165.373
  H      184.846     447.157    -163.018
  H      181.515     448.056    -162.064
  H      181.544     445.235    -162.603
  H      183.674     445.050    -161.526
  H      182.554     446.980    -159.422
  H      184.945     447.519    -159.098
  H      184.581     445.866    -158.577
  P      182.748     442.737    -160.564
  C      180.191     442.563    -160.994
  O      181.497     442.346    -161.493
  O      183.173     441.743    -159.538
  O      183.927     442.900    -161.647
  H      184.457     442.085    -161.664
  H      179.479     442.214    -161.736
  H      180.022     443.638    -160.828
  H      180.042     442.019    -160.065
  H      187.871     449.430    -159.794
  H      186.704     448.630    -160.819
  H      188.405     448.268    -160.985

 3  4  5  6  7  8  9  10  11  12  13  23  28  29  30  31  32 0
 6-311+G(2d,p)
 ****
 33  34 0
 6-311+G(2d,p)
 ****
 1  2  14  15  16  17  18  19  20  21  22  24  25  26  27 0
 3-21G
 ****
 35  36  37  38  39  40  41  42  43  44  45 0
 3-21G
 ****


