%nproc=1
%NoSave
%Mem=1900MB
#P OB98/GEN NMR

erre ene a

0 1
  C       -2.326    -195.663     211.545
  O       -2.312    -196.170     212.870
  P       -3.073    -197.553     213.156
  C       -0.823    -198.784     212.679
  O       -2.219    -198.708     212.438
  C       -0.449    -200.149     213.267
  O       -0.942    -201.180     212.371
  C        1.059    -200.389     213.438
  O        1.214    -201.233     214.586
  C        1.432    -201.155     212.185
  O        2.642    -201.897     212.331
  C        0.183    -202.007     211.990
  N        1.723    -205.337     208.502
  C        2.191    -205.126     209.790
  N        3.159    -205.958     210.228
  N        1.738    -204.182     210.582
  C        0.758    -203.438     210.007
  C        0.250    -203.519     208.738
  C        0.724    -204.591     207.888
  O        0.288    -204.868     206.776
  N       -0.668    -202.532     208.497
  C       -0.778    -201.897     209.647
  N        0.043    -202.440     210.611
  O       -4.387    -197.432     212.250
  O       -3.390    -197.835     214.595
  H        2.687    -202.542     211.593
  H       -5.138    -197.083     212.761
  H        2.098    -206.095     207.948
  H       -1.416    -201.056     209.848
  H        0.180    -202.904     212.621
  H        1.567    -200.455     211.352
  H        3.526    -206.726     209.681
  H        1.632    -199.468     213.563
  H        3.486    -205.850     211.177
  H       -0.970    -200.269     214.222
  H       -0.545    -198.007     213.405
  H       -0.277    -198.600     211.747
  P        2.554    -201.068     215.458
  C        1.359    -199.941     217.464
  O        2.339    -199.827     216.451
  O        3.610    -200.509     214.388
  O        3.051    -202.332     216.081
  H        4.505    -200.833     214.608
  H        1.595    -199.234     218.268
  H        1.322    -200.948     217.881
  H        0.377    -199.687     217.051
  H       -1.782    -194.742     211.510
  H       -3.337    -195.492     211.239
  H       -1.869    -196.372     210.887

 3  4  5  6  7  8  9  10  11  12  23  26  30  31 0
 6-311+G(2d,p)
 ****
 33  35  36  37  38 0
 6-311+G(2d,p)
 ****
 1  2  13  14  15  16  17  18  19  20  21  22  24  25 0
 3-21G
 ****
 27  28  29  32  34  39  40  41  42  43  44  45  46  47  48  49 0
 3-21G
 ****


