%nproc=1
%NoSave
%Mem=1900MB
#P OB98/GEN NMR

erre ene a

0 1
  C     -100.549     -70.631     -68.291
  O     -101.223     -70.544     -69.553
  P     -100.369     -70.807     -70.882
  C     -101.516     -69.259     -72.629
  O     -101.330     -70.580     -72.144
  C     -102.852     -69.147     -73.368
  O     -103.973     -69.228     -72.460
  C     -103.023     -67.837     -74.125
  O     -102.387     -67.876     -75.396
  C     -104.532     -67.797     -74.303
  O     -104.918     -68.644     -75.406
  C     -105.031     -68.383     -72.978
  N     -108.642     -65.229     -71.365
  C     -108.657     -66.146     -72.397
  N     -109.807     -66.242     -73.099
  N     -107.637     -66.901     -72.714
  C     -106.562     -66.709     -71.916
  C     -106.424     -65.832     -70.865
  C     -107.554     -64.992     -70.535
  O     -107.593     -64.152     -69.641
  N     -105.179     -65.920     -70.300
  C     -104.570     -66.863     -70.993
  N     -105.362     -67.362     -71.997
  O     -100.172     -72.396     -70.870
  O      -99.061     -70.089     -70.924
  H     -105.813     -68.362     -75.674
  H      -99.350     -72.632     -71.338
  H     -109.453     -64.670     -71.169
  H     -103.565     -67.217     -70.808
  H     -105.922     -69.009     -73.105
  H     -104.899     -66.793     -74.535
  H     -110.646     -65.730     -72.878
  H     -102.691     -66.983     -73.522
  H     -109.849     -66.934     -73.838
  H     -102.920     -69.983     -74.077
  H     -100.697     -68.980     -73.298
  H     -101.462     -68.562     -71.788
  P     -100.963     -67.154     -75.543
  C     -101.060     -66.141     -77.930
  O     -100.607     -67.192     -77.103
  O      -99.959     -68.215     -74.888
  O     -100.868     -65.822     -74.882
  H      -99.208     -67.751     -74.474
  H     -100.594     -66.244     -78.913
  H     -100.784     -65.170     -77.511
  H     -102.145     -66.198     -78.049
  H     -101.243     -70.432     -67.501
  H      -99.757     -69.912     -68.259
  H     -100.143     -71.614     -68.170

 3  4  5  6  7  8  9  10  11  12  23  26  30  31 0
 6-311+G(2d,p)
 ****
 33  35  36  37  38 0
 6-311+G(2d,p)
 ****
 1  2  13  14  15  16  17  18  19  20  21  22  24  25 0
 3-21G
 ****
 27  28  29  32  34  39  40  41  42  43  44  45  46  47  48  49 0
 3-21G
 ****


