%nproc=1
%NoSave
%Mem=1900MB
#P OB98/GEN NMR

erre ene a

0 1
  C     -163.686     -81.907     262.116
  O     -163.692     -82.446     263.427
  P     -164.435     -81.616     264.581
  C     -166.876     -82.480     264.397
  O     -165.964     -81.414     264.147
  C     -168.145     -81.953     265.078
  O     -167.814     -81.456     266.407
  C     -168.819     -80.808     264.319
  O     -170.243     -80.892     264.493
  C     -168.347     -79.573     265.054
  O     -169.239     -78.474     264.863
  C     -168.288     -80.096     266.491
  N     -167.228     -75.439     268.144
  C     -168.363     -75.908     267.509
  N     -169.303     -74.993     267.204
  N     -168.564     -77.169     267.219
  C     -167.531     -77.971     267.577
  C     -166.362     -77.627     268.221
  C     -166.150     -76.228     268.533
  O     -165.165     -75.741     269.066
  N     -165.576     -78.721     268.457
  C     -166.237     -79.727     267.913
  N     -167.413     -79.316     267.339
  O     -163.803     -80.152     264.428
  O     -164.222     -82.150     265.960
  H     -170.136     -78.857     264.754
  H     -163.168     -79.989     265.149
  H     -167.120     -74.458     268.337
  H     -165.904     -80.755     267.888
  H     -169.280     -80.118     266.957
  H     -167.354     -79.270     264.691
  H     -169.182     -73.999     267.345
  H     -168.585     -80.769     263.245
  H     -170.124     -75.305     266.700
  H     -168.839     -82.794     265.213
  H     -166.392     -83.212     265.057
  H     -167.133     -82.977     263.462
  P     -171.068     -81.450     263.235
  C     -170.263     -83.923     263.207
  O     -170.190     -82.639     262.621
  O     -170.930     -80.277     262.148
  O     -172.494     -81.783     263.541
  H     -171.683     -80.301     261.536
  H     -170.662     -84.628     262.467
  H     -170.899     -83.944     264.095
  H     -169.254     -84.243     263.485
  H     -163.157     -82.568     261.461
  H     -163.203     -80.952     262.125
  H     -164.693     -81.794     261.772

 3  4  5  6  7  8  9  10  11  12  23  26  30  31 0
 6-311+G(2d,p)
 ****
 33  35  36  37  38 0
 6-311+G(2d,p)
 ****
 1  2  13  14  15  16  17  18  19  20  21  22  24  25 0
 3-21G
 ****
 27  28  29  32  34  39  40  41  42  43  44  45  46  47  48  49 0
 3-21G
 ****


