%nproc=1
%NoSave
%Mem=1900MB
#P OB98/GEN NMR

erre ene a

0 1
  C       44.863      38.601    -163.021
  O       45.519      39.458    -163.934
  H       43.782      38.633    -163.182
  H       45.213      37.577    -163.184
  H       45.095      38.896    -161.993
  P       45.117      41.011    -163.885
  C       43.385      40.753    -165.812
  O       43.613      41.074    -164.446
  C       42.370      41.729    -166.396
  O       41.102      41.596    -165.712
  C       42.770      43.194    -166.249
  O       43.672      43.615    -167.256
  C       41.419      43.871    -166.400
  O       41.038      43.897    -167.787
  C       40.504      42.918    -165.613
  N       37.920      45.780    -162.244
  C       37.776      45.604    -163.576
  N       38.493      44.809    -164.397
  C       39.432      44.141    -163.711
  C       39.694      44.211    -162.352
  C       38.887      45.084    -161.601
  N       39.049      45.290    -160.247
  N       40.755      43.392    -162.017
  C       41.114      42.826    -163.152
  N       40.366      43.273    -164.210
  O       45.969      41.664    -165.072
  O       45.318      41.696    -162.574
  H       41.735      44.385    -168.266
  H       45.975      42.637    -164.992
  H       36.985      46.183    -164.045
  H       41.910      42.102    -163.261
  H       39.494      42.859    -166.035
  H       41.424      44.906    -166.049
  H       43.166      43.404    -165.248
  H       42.208      41.469    -167.450
  H       42.995      39.732    -165.879
  H       38.524      46.040    -159.831
  H       39.857      44.891    -159.791
  H       44.329      40.816    -166.363
  P       44.569      44.913    -166.953
  C       42.748      46.355    -168.118
  O       43.571      46.170    -166.970
  O       45.411      45.091    -168.301
  O       45.446      44.797    -165.749
  H       46.293      45.469    -168.115
  H       42.141      47.226    -167.985
  H       42.119      45.499    -168.248
  H       43.365      46.478    -168.983

 6  7  8  9  10  11  12  13  14  15  25  28  32  33  34  35 0
 6-311+G(2d,p)
 ****
 36  39  40 0
 6-311+G(2d,p)
 ****
 1  2  3  4  5  16  17  18  19  20  21  22  23  24 0
 3-21G
 ****
 26  27  29  30  31  37  38  41  42  43  44  45  46  47 0
 3-21G
 ****
 48 0
 3-21G
 ****


