%nproc=1
%NoSave
%Mem=1900MB
#P OB98/GEN NMR

erre ene a

0 1
  C      201.155    -310.570    -290.633
  O      200.703    -311.401    -291.682
  H      201.656    -309.699    -291.065
  H      201.868    -311.107    -290.001
  H      200.309    -310.230    -290.030
  P      200.027    -312.794    -291.245
  C      197.861    -312.244    -292.594
  O      198.987    -313.094    -292.436
  C      197.348    -312.334    -294.029
  O      198.318    -311.792    -294.951
  C      197.080    -313.757    -294.506
  O      195.849    -314.277    -294.028
  C      197.054    -313.538    -296.009
  O      195.805    -312.929    -296.387
  C      198.230    -312.550    -296.188
  N      199.503    -313.218    -296.472
  C      199.553    -314.003    -297.630
  O      198.563    -314.122    -298.350
  N      200.719    -314.669    -297.930
  C      201.749    -314.549    -297.146
  N      202.873    -315.243    -297.481
  C      201.745    -313.723    -295.928
  C      200.602    -313.094    -295.655
  O      199.061    -312.383    -290.037
  O      200.968    -313.910    -290.934
  H      195.684    -312.154    -295.810
  H      198.504    -313.155    -289.777
  H      202.623    -313.666    -295.302
  H      200.526    -312.465    -294.774
  H      198.022    -311.834    -296.992
  H      197.146    -314.464    -296.579
  H      197.912    -314.426    -294.264
  H      196.445    -311.709    -294.106
  H      202.824    -315.852    -298.286
  H      198.166    -311.219    -292.362
  H      203.654    -315.360    -296.848
  H      197.064    -312.541    -291.905
  P      195.916    -315.522    -293.011
  C      193.408    -314.975    -292.631
  O      194.404    -315.980    -292.735
  O      196.353    -314.838    -291.632
  O      196.852    -316.617    -293.415
  H      196.977    -315.404    -291.141
  H      192.458    -315.432    -292.448
  H      193.366    -314.419    -293.544
  H      193.649    -314.316    -291.823

 6  7  8  9  10  11  12  13  14  15  16  26  30  31  32  33  35 0
 6-311+G(2d,p)
 ****
 37  38 0
 6-311+G(2d,p)
 ****
 1  2  3  4  5  17  18  19  20  21  22  23  24  25 0
 3-21G
 ****
 27  28  29  34  36  39  40  41  42  43  44  45  46 0
 3-21G
 ****


