%nproc=1
%NoSave
%Mem=1900MB
#P OB98/GEN NMR

erre ene a

0 1
  C      -45.533     -60.594     -77.093
  O      -46.183     -61.609     -76.357
  H      -45.360     -59.741     -76.432
  H      -46.153     -60.265     -77.931
  H      -44.567     -60.950     -77.460
  P      -46.655     -62.931     -77.137
  C      -44.180     -63.699     -77.117
  O      -45.332     -63.431     -77.902
  C      -43.867     -65.193     -77.129
  O      -43.771     -65.691     -78.479
  C      -42.541     -65.575     -76.479
  O      -42.567     -65.510     -75.063
  C      -42.396     -66.998     -76.994
  O      -43.274     -67.867     -76.259
  C      -42.874     -66.837     -78.459
  N      -41.773     -66.642     -79.400
  C      -41.193     -67.800     -79.934
  O      -41.606     -68.913     -79.613
  N      -40.130     -67.670     -80.795
  C      -39.674     -66.491     -81.082
  N      -38.589     -66.421     -81.903
  C      -40.265     -65.246     -80.556
  C      -41.295     -65.392     -79.726
  O      -47.875     -62.795     -77.990
  O      -46.801     -64.038     -75.991
  H      -43.104     -67.712     -75.313
  H      -47.105     -64.874     -76.421
  H      -39.841     -64.289     -80.821
  H      -41.773     -64.524     -79.285
  H      -43.459     -67.709     -78.774
  H      -41.382     -67.394     -76.889
  H      -41.721     -64.972     -76.883
  H      -44.711     -65.711     -76.656
  H      -38.184     -67.295     -82.209
  H      -44.373     -63.346     -76.098
  H      -38.015     -65.585     -81.947
  H      -43.317     -63.162     -77.521
  P      -41.185     -65.213     -74.300
  C      -41.461     -62.623     -74.334
  O      -40.712     -63.749     -74.757
  O      -40.156     -66.191     -75.033
  O      -41.209     -65.410     -72.817
  H      -40.071     -67.037     -74.553
  H      -41.015     -61.731     -74.722
  H      -41.469     -62.581     -73.265
  H      -42.465     -62.706     -74.695

 6  7  8  9  10  11  12  13  14  15  16  26  30  31  32  33  35 0
 6-311+G(2d,p)
 ****
 37  38 0
 6-311+G(2d,p)
 ****
 1  2  3  4  5  17  18  19  20  21  22  23  24  25 0
 3-21G
 ****
 27  28  29  34  36  39  40  41  42  43  44  45  46 0
 3-21G
 ****


