%nproc=1
%NoSave
%Mem=1900MB
#P OB98/GEN NMR

erre ene a

0 1
  C       60.660       6.373     -81.722
  O       59.454       7.010     -81.358
  H       60.617       5.332     -81.391
  H       61.508       6.859     -81.232
  H       60.798       6.390     -82.806
  P       59.198       8.517     -81.843
  C       60.683       9.237     -79.864
  O       60.391       9.405     -81.245
  C       61.999       9.929     -79.522
  O       63.060       9.435     -80.370
  C       61.973      11.440     -79.727
  O       61.263      12.077     -78.685
  C       63.463      11.739     -79.775
  O       64.025      11.777     -78.454
  C       64.000      10.518     -80.558
  N       64.202      10.799     -81.980
  C       65.354      10.270     -82.552
  O       66.175       9.604     -81.925
  N       65.557      10.572     -83.873
  C       64.784      11.407     -84.627
  O       65.120      11.824     -85.731
  C       63.544      11.875     -83.993
  C       63.320      11.568     -82.713
  O       57.828       9.052     -81.598
  O       59.538       8.470     -83.408
  H       58.706       8.429     -83.917
  H       63.969      10.867     -78.104
  H       66.414      10.232     -84.286
  H       62.871      12.488     -84.580
  H       62.426      11.927     -82.216
  H       64.957      10.183     -80.138
  H       63.679      12.702     -80.242
  H       61.533      11.679     -80.702
  H       62.255       9.683     -78.483
  H       60.771       8.164     -79.655
  H       59.861       9.649     -79.271
  P       60.341      13.353     -78.971
  C       62.156      14.865     -77.977
  O       61.292      14.639     -79.082
  O       59.183      13.518     -78.043
  O       59.839      13.146     -80.478
  H       58.865      13.210     -80.502
  H       62.741      15.743     -78.156
  H       62.804      14.023     -77.853
  H       61.573      15.000     -77.090

 6  7  8  9  10  11  12  13  14  15  16  27  31  32  33  34  35 0
 6-311+G(2d,p)
 ****
 36  37 0
 6-311+G(2d,p)
 ****
 1  2  3  4  5  17  18  19  20  21  22  23  24  25 0
 3-21G
 ****
 26  28  29  30  38  39  40  41  42  43  44  45 0
 3-21G
 ****


