%nproc=1
%NoSave
%Mem=1900MB
#P OB98/GEN NMR

erre ene a

0 1
  C     -332.578     400.971    -508.893
  O     -331.622     399.976    -509.203
  H     -332.678     401.031    -507.803
  H     -333.549     400.712    -509.322
  H     -332.249     401.943    -509.273
  P     -331.409     399.653    -510.762
  C     -333.350     398.833    -512.299
  O     -332.612     398.641    -511.105
  C     -334.543     397.883    -512.328
  O     -335.236     397.899    -511.063
  C     -335.602     398.233    -513.374
  O     -335.245     397.847    -514.688
  C     -336.774     397.406    -512.841
  O     -336.557     396.023    -513.145
  C     -336.656     397.682    -511.324
  N     -337.441     398.838    -510.888
  C     -338.682     398.566    -510.296
  O     -339.073     397.405    -510.164
  N     -339.469     399.618    -509.906
  C     -339.054     400.837    -510.064
  N     -339.884     401.843    -509.654
  C     -337.757     401.172    -510.672
  C     -337.011     400.141    -511.056
  O     -330.127     398.694    -510.765
  O     -331.302     400.835    -511.667
  H     -337.128     395.506    -512.546
  H     -329.994     398.310    -511.674
  H     -337.457     402.208    -510.801
  H     -336.038     400.304    -511.519
  H     -336.967     396.805    -510.745
  H     -337.727     397.685    -513.282
  H     -335.872     399.294    -513.334
  H     -334.160     396.866    -512.479
  H     -340.794     401.578    -509.298
  H     -332.690     398.639    -513.152
  H     -339.721     402.815    -509.876
  H     -333.705     399.866    -512.362
  P     -335.932     398.653    -515.905
  C     -338.268     399.751    -516.172
  O     -337.503     398.712    -515.590
  O     -335.839     397.617    -517.116
  O     -335.286     399.965    -516.228
  H     -335.709     398.082    -517.969
  H     -339.290     399.654    -515.869
  H     -338.205     399.686    -517.238
  H     -337.888     400.698    -515.849

 6  7  8  9  10  11  12  13  14  15  16  26  30  31  32  33  35 0
 6-311+G(2d,p)
 ****
 37  38 0
 6-311+G(2d,p)
 ****
 1  2  3  4  5  17  18  19  20  21  22  23  24  25 0
 3-21G
 ****
 27  28  29  34  36  39  40  41  42  43  44  45  46 0
 3-21G
 ****


