%nproc=1
%NoSave
%Mem=1900MB
#P OB98/GEN NMR

erre ene a

0 1
  C      498.485     384.795      99.221
  O      498.685     383.672     100.048
  P      499.626     382.436      99.665
  C      497.528     380.896      99.387
  O      498.752     381.366      98.838
  C      497.431     379.369      99.271
  O      496.197     378.936      99.896
  C      497.362     378.918      97.802
  O      498.142     377.756      97.498
  C      495.864     378.827      97.535
  O      495.524     378.029      96.420
  C      495.342     378.349      98.887
  N      490.551     378.526      97.188
  C      491.631     377.845      96.667
  N      491.459     377.307      95.438
  N      492.793     377.759      97.282
  C      492.852     378.446      98.444
  C      491.845     379.147      99.061
  C      490.557     379.218      98.390
  O      489.603     379.898      98.769
  N      492.276     379.779     100.190
  C      493.571     379.490     100.247
  N      493.965     378.709      99.183
  O      500.529     381.928     100.741
  O      500.549     383.083      98.511
  H      495.728     377.111      96.638
  H      501.431     382.669      98.584
  H      489.710     378.635      96.625
  H      494.253     379.836     101.005
  H      495.398     377.264      98.985
  H      495.513     379.846      97.320
  H      490.636     377.486      94.892
  H      497.795     379.686      97.136
  H      492.313     377.027      94.933
  H      498.264     378.910      99.811
  H      496.727     381.377      98.816
  H      497.424     381.210     100.427
  P      498.743     377.298      96.100
  C      497.373     375.127      96.152
  O      497.709     376.278      95.407
  O      499.977     376.340      96.481
  O      499.200     378.407      95.212
  H      500.717     376.501      95.863
  H      496.901     374.402      95.478
  H      496.668     375.380      96.940
  H      498.272     374.675      96.588
  H      497.815     385.477      99.702
  H      498.065     384.481      98.288
  H      499.422     385.280      99.045

 3  4  5  6  7  8  9  10  11  12  23  26  30  31 0
 6-311+G(2d,p)
 ****
 33  35  36  37  38 0
 6-311+G(2d,p)
 ****
 1  2  13  14  15  16  17  18  19  20  21  22  24  25 0
 3-21G
 ****
 27  28  29  32  34  39  40  41  42  43  44  45  46  47  48  49 0
 3-21G
 ****


