%nproc=1
%NoSave
%Mem=1900MB
#P OB98/GEN NMR

erre ene a

0 1
  C     -446.277      62.538     387.973
  O     -445.908      61.904     386.749
  P     -446.886      61.037     385.837
  C     -446.875      62.464     383.628
  O     -447.581      62.002     384.774
  C     -447.721      63.462     382.823
  O     -448.699      62.718     382.036
  C     -448.502      64.429     383.720
  O     -448.498      65.771     383.250
  C     -449.850      63.744     383.858
  O     -450.889      64.620     384.265
  C     -450.020      63.094     382.491
  N     -454.747      61.329     383.263
  C     -454.231      62.585     383.507
  N     -455.074      63.496     384.040
  N     -452.993      62.921     383.262
  C     -452.235      61.901     382.804
  C     -452.626      60.609     382.538
  C     -454.015      60.261     382.761
  O     -454.525      59.166     382.546
  N     -451.582      59.855     382.073
  C     -450.554      60.683     382.078
  N     -450.906      61.942     382.506
  O     -447.772      60.078     386.559
  O     -445.880      60.167     384.922
  H     -451.704      64.097     384.364
  H     -446.330      59.317     384.752
  H     -455.715      61.131     383.446
  H     -449.544      60.431     381.767
  H     -450.441      63.783     381.754
  H     -449.755      62.977     384.637
  H     -456.003      63.270     384.364
  H     -448.034      64.504     384.710
  H     -454.638      64.335     384.419
  H     -447.065      63.999     382.127
  H     -446.671      61.574     383.026
  H     -445.917      62.895     383.916
  P     -447.630      67.007     383.763
  C     -446.340      67.333     381.569
  O     -446.248      67.033     382.949
  O     -447.168      66.603     385.239
  O     -448.353      68.315     383.787
  H     -447.528      67.245     385.884
  H     -445.396      67.065     381.092
  H     -446.505      68.405     381.440
  H     -447.152      66.772     381.103
  H     -445.431      63.053     388.377
  H     -446.612      61.799     388.671
  H     -447.065      63.238     387.789

 3  4  5  6  7  8  9  10  11  12  23  26  30  31 0
 6-311+G(2d,p)
 ****
 33  35  36  37  38 0
 6-311+G(2d,p)
 ****
 1  2  13  14  15  16  17  18  19  20  21  22  24  25 0
 3-21G
 ****
 27  28  29  32  34  39  40  41  42  43  44  45  46  47  48  49 0
 3-21G
 ****


