%nproc=1
%NoSave
%Mem=1900MB
#P OB98/GEN NMR

erre ene a

0 1
  C      129.614    -458.595    -235.851
  O      129.269    -459.316    -234.685
  H      130.688    -458.721    -236.031
  H      129.406    -457.534    -235.714
  H      129.070    -458.978    -236.722
  P      127.722    -459.420    -234.269
  C      128.197    -459.138    -231.747
  O      127.668    -459.978    -232.764
  C      128.899    -459.969    -230.667
  O      127.904    -460.431    -229.717
  C      129.631    -461.204    -231.212
  O      130.838    -461.399    -230.475
  C      128.666    -462.337    -230.936
  O      129.329    -463.595    -230.808
  C      127.999    -461.874    -229.644
  N      125.493    -466.222    -229.041
  C      126.841    -465.976    -229.086
  N      127.661    -467.045    -228.972
  N      127.368    -464.784    -229.233
  C      126.432    -463.796    -229.306
  C      125.057    -463.914    -229.278
  C      124.500    -465.245    -229.136
  O      123.307    -465.525    -229.110
  N      124.456    -462.687    -229.409
  C      125.456    -461.831    -229.517
  N      126.676    -462.461    -229.483
  O      126.858    -460.164    -235.243
  O      127.251    -457.900    -234.108
  H      128.633    -464.267    -230.649
  H      126.700    -457.620    -234.866
  H      125.143    -467.158    -228.937
  H      125.356    -460.766    -229.629
  H      128.580    -462.138    -228.750
  H      127.939    -462.417    -231.753
  H      127.328    -467.992    -228.835
  H      129.858    -461.106    -232.277
  H      128.664    -466.892    -228.969
  H      129.589    -459.314    -230.119
  H      127.371    -458.573    -231.300
  H      128.907    -458.429    -232.200
  P      132.228    -461.547    -231.272
  C      133.024    -463.786    -230.304
  O      133.257    -462.386    -230.375
  O      132.775    -460.275    -231.850
  O      131.857    -462.587    -232.443
  H      132.363    -462.351    -233.251
  H      133.767    -464.240    -229.682
  H      133.075    -464.206    -231.287
  H      132.054    -463.966    -229.890

 6  7  8  9  10  11  12  13  14  15  26  29  33  34 0
 6-311+G(2d,p)
 ****
 36  38  39  40  41 0
 6-311+G(2d,p)
 ****
 1  2  3  4  5  16  17  18  19  20  21  22  23  24  25 0
 3-21G
 ****
 27  28  30  31  32  35  37  42  43  44  45  46  47 0
 3-21G
 ****
 48  49 0
 3-21G
 ****


