%nproc=1
%NoSave
%Mem=1900MB
#P OB98/GEN NMR

erre ene a

0 1
  C      357.269     -83.695     152.047
  O      356.599     -82.510     152.430
  H      356.824     -84.538     152.580
  H      358.329     -83.631     152.310
  H      357.163     -83.861     150.971
  P      357.092     -81.149     151.737
  C      359.025     -80.647     153.404
  O      358.653     -81.006     152.078
  C      360.543     -80.523     153.497
  O      361.154     -81.813     153.256
  C      361.149     -79.587     152.460
  O      361.003     -78.223     152.809
  C      362.596     -80.059     152.447
  O      363.348     -79.462     153.512
  C      362.456     -81.569     152.674
  N      365.777     -84.063     149.705
  C      365.908     -83.489     150.920
  N      364.969     -82.855     151.652
  C      363.783     -82.869     151.017
  C      363.497     -83.418     149.779
  C      364.561     -84.044     149.108
  N      364.436     -84.606     147.862
  N      362.177     -83.198     149.445
  C      361.670     -82.538     150.467
  N      362.602     -82.319     151.442
  O      356.400     -80.016     152.633
  O      356.739     -81.010     150.293
  H      364.261     -79.809     153.430
  H      355.602     -79.687     152.179
  H      366.901     -83.536     151.359
  H      360.647     -82.195     150.543
  H      363.205     -81.953     153.380
  H      363.083     -79.796     151.510
  H      360.709     -79.780     151.474
  H      360.808     -80.206     154.513
  H      358.683     -81.423     154.099
  H      358.543     -79.701     153.663
  H      365.255     -84.978     147.410
  H      363.563     -84.496     147.358
  P      360.764     -77.171     151.624
  C      363.272     -76.734     151.059
  O      362.024     -77.269     150.640
  O      360.946     -75.748     152.335
  O      359.439     -77.287     150.948
  H      360.331     -75.100     151.941
  H      364.000     -76.882     150.289
  H      363.591     -77.230     151.952
  H      363.165     -75.687     151.252

 6  7  8  9  10  11  12  13  14  15  25  28  32  33  34  35 0
 6-311+G(2d,p)
 ****
 36  37  40 0
 6-311+G(2d,p)
 ****
 1  2  3  4  5  16  17  18  19  20  21  22  23  24 0
 3-21G
 ****
 26  27  29  30  31  38  39 41  42  43  44  45  46  47  48 0
 3-21G
 ****


