%nproc=1
%NoSave
%Mem=1900MB
#P OB98/GEN NMR

erre ene a

0 1
  C      545.645     283.089     183.666
  O      546.077     282.965     182.321
  H      544.583     282.839     183.717
  H      545.781     284.119     184.013
  H      546.203     282.403     184.307
  P      547.596     283.395     182.022
  C      546.435     285.105     180.429
  O      547.492     284.174     180.624
  C      546.767     286.024     179.257
  O      547.780     286.979     179.639
  C      547.328     285.298     178.031
  O      546.324     284.662     177.258
  C      547.960     286.469     177.300
  O      546.939     287.243     176.649
  C      548.606     287.247     178.464
  N      549.992     286.867     178.713
  C      550.919     287.138     177.704
  O      550.551     287.658     176.643
  N      552.235     286.782     177.883
  C      552.603     286.214     178.989
  N      553.911     285.866     179.119
  C      551.675     285.926     180.105
  C      550.397     286.273     179.894
  O      548.304     282.017     181.598
  O      548.292     284.138     183.112
  H      547.388     288.010     176.239
  H      549.216     282.199     181.273
  H      552.013     285.442     180.994
  H      549.653     286.088     180.665
  H      548.567     288.328     178.278
  H      548.665     286.144     176.521
  H      548.119     284.588     178.311
  H      545.857     286.592     179.003
  H      554.521     286.025     178.324
  H      546.319     285.690     181.344
  H      554.251     285.269     179.861
  H      545.502     284.580     180.217
  P      546.753     283.387     176.387
  C      545.732     284.507     174.276
  O      545.780     283.357     175.104
  O      546.240     282.152     177.259
  O      548.220     283.295     176.076
  H      546.875     281.416     177.229
  H      545.047     284.339     173.471
  H      546.707     284.702     173.880
  H      545.406     285.348     174.852

 6  7  8  9  10  11  12  13  14  15  16  26  30  31  32  33  35 0
 6-311+G(2d,p)
 ****
 37  38 0
 6-311+G(2d,p)
 ****
 1  2  3  4  5  17  18  19  20  21  22  23  24  25 0
 3-21G
 ****
 27  28  29  34  36  39  40  41  42  43  44  45  46 0
 3-21G
 ****


