%nproc=1
%NoSave
%Mem=1900MB
#P OB98/GEN NMR

erre ene a

0 1
  C      405.650      57.891    -130.892
  O      404.926      59.058    -130.529
  P      404.361      60.051    -131.648
  C      401.819      59.546    -131.214
  O      402.881      60.479    -131.239
  C      400.976      59.777    -129.950
  O      401.682      59.272    -128.795
  C      400.702      61.262    -129.722
  O      399.445      61.624    -130.277
  C      400.759      61.376    -128.212
  O      399.510      60.964    -127.619
  C      401.877      60.371    -127.857
  N      403.281      60.814    -127.971
  C      403.921      61.365    -126.864
  O      403.398      61.459    -125.748
  N      405.208      61.804    -127.072
  C      405.899      61.718    -128.247
  O      406.935      62.324    -128.489
  C      405.269      60.901    -129.292
  C      404.007      60.509    -129.118
  O      404.135      59.091    -132.900
  O      405.242      61.214    -131.986
  H      399.651      60.914    -126.665
  H      404.887      59.155    -133.536
  H      405.628      62.328    -126.305
  H      405.841      60.684    -130.189
  H      403.504      59.934    -129.902
  H      401.753      59.965    -126.844
  H      400.913      62.418    -127.905
  H      401.508      61.873    -130.148
  H      400.037      59.218    -130.046
  H      402.212      58.525    -131.235
  H      401.195      59.666    -132.109
  P      399.211      63.126    -130.776
  C      399.925      62.811    -133.222
  O      398.832      62.993    -132.329
  O      400.303      64.106    -130.450
  O      397.828      63.534    -130.073
  H      398.003      64.046    -129.253
  H      399.529      62.556    -134.211
  H      400.564      61.997    -132.871
  H      400.501      63.735    -133.288
  H      405.941      57.362    -130.008
  H      406.523      58.170    -131.444
  H      405.032      57.261    -131.497

 3  4  5  6  7  8  9  10  11  12  13  23  28  29  30  31  32 0
 6-311+G(2d,p)
 ****
 33  34 0
 6-311+G(2d,p)
 ****
 1  2  14  15  16  17  18  19  20  21  22  24  25  26  27 0
 3-21G
 ****
 35  36  37  38  39  40  41  42  43  44  45 0
 3-21G
 ****


