%nproc=1
%NoSave
%Mem=1900MB
#P OB98/GEN NMR

erre ene a

0 1
  C       -4.984     415.475     255.587
  O       -5.686     416.101     254.537
  H       -3.939     415.362     255.290
  H       -5.407     414.484     255.768
  H       -5.027     416.066     256.505
  P       -7.091     416.796     254.857
  C       -8.383     415.176     253.316
  O       -8.251     415.707     254.630
  C       -8.641     413.669     253.338
  O       -7.689     413.029     254.218
  C      -10.033     413.318     253.864
  O      -11.050     413.313     252.877
  C       -9.815     411.916     254.429
  O      -10.009     410.911     253.422
  C       -8.350     411.946     254.884
  N       -8.662     409.720     259.479
  C       -9.082     409.240     258.253
  N       -9.693     408.035     258.266
  N       -8.930     409.895     257.133
  C       -8.394     411.127     257.291
  C       -7.957     411.716     258.456
  C       -8.064     410.956     259.682
  O       -7.693     411.330     260.789
  N       -7.509     412.997     258.234
  C       -7.752     413.208     256.955
  N       -8.215     412.073     256.323
  O       -7.306     417.792     253.616
  O       -7.162     417.545     256.154
  H       -9.927     410.035     253.853
  H       -7.810     418.573     253.908
  H       -8.780     409.160     260.301
  H       -7.575     414.135     256.430
  H       -7.826     411.024     254.599
  H      -10.527     411.705     255.229
  H       -9.912     407.529     259.110
  H      -10.313     413.979     254.690
  H      -10.184     407.735     257.424
  H       -8.476     413.259     252.333
  H       -7.448     415.389     252.800
  H       -9.182     415.694     252.777
  P      -12.208     414.415     252.889
  C      -14.024     412.666     253.629
  O      -13.381     413.905     253.843
  O      -12.844     414.286     251.424
  O      -11.765     415.810     253.187
  H      -12.491     414.977     250.835
  H      -14.774     412.520     254.378
  H      -13.304     411.876     253.686
  H      -14.480     412.663     252.661

 6  7  8  9  10  11  12  13  14  15  26  29  33  34 0
 6-311+G(2d,p)
 ****
 36  38  39  40  41 0
 6-311+G(2d,p)
 ****
 1  2  3  4  5  16  17  18  19  20  21  22  23  24  25 0
 3-21G
 ****
 27  28  30  31  32  35  37  42  43  44  45  46  47 0
 3-21G
 ****
 48  49 0
 3-21G
 ****


