%nproc=1
%NoSave
%Mem=1900MB
#P OB98/GEN NMR

erre ene a

0 1
  C      -17.006     191.223     136.818
  O      -17.835     190.425     137.637
  H      -17.594     192.007     136.333
  H      -16.244     191.696     137.446
  H      -16.509     190.606     136.063
  P      -19.025     189.630     136.908
  C      -21.378     190.517     137.565
  O      -20.225     190.686     136.749
  C      -21.040     190.873     139.010
  O      -20.384     192.160     139.068
  C      -22.255     190.991     139.927
  O      -22.704     189.726     140.382
  C      -21.668     191.808     141.063
  O      -20.856     190.965     141.901
  C      -20.785     192.807     140.305
  N      -20.806     197.874     141.063
  C      -20.007     196.894     141.539
  N      -20.069     195.567     141.291
  C      -21.087     195.289     140.459
  C      -21.987     196.179     139.907
  C      -21.820     197.536     140.228
  N      -22.640     198.536     139.761
  N      -22.919     195.510     139.129
  C      -22.560     194.248     139.192
  N      -21.466     194.058     139.993
  O      -19.562     188.634     138.041
  O      -18.654     188.918     135.648
  H      -21.473     190.387     142.394
  H      -20.052     187.894     137.630
  H      -19.214     197.218     142.208
  H      -23.060     193.433     138.677
  H      -19.871     193.066     140.854
  H      -22.427     192.262     141.703
  H      -23.065     191.560     139.458
  H      -20.336     190.123     139.389
  H      -21.702     189.474     137.518
  H      -22.548     199.446     140.199
  H      -23.481     198.276     139.263
  H      -22.182     191.165     137.191
  P      -24.276     189.565     140.678
  C      -25.100     189.530     143.145
  O      -24.530     190.290     142.083
  O      -24.423     188.011     141.026
  O      -25.168     189.988     139.555
  H      -25.324     187.693     140.824
  H      -25.206     190.150     144.010
  H      -24.461     188.703     143.375
  H      -26.061     189.166     142.847

 6  7  8  9  10  11  12  13  14  15  25  28  32  33  34  35 0
 6-311+G(2d,p)
 ****
 36  39  40 0
 6-311+G(2d,p)
 ****
 1  2  3  4  5  16  17  18  19  20  21  22  23  24 0
 3-21G
 ****
 26  27  29  30  31  37  38  41  42  43  44  45  46  47 0
 3-21G
 ****
 48 0
 3-21G
 ****


