%nproc=1
%NoSave
%Mem=1900MB
#P OB98/GEN NMR

erre ene a

0 1
  C      231.026    -857.701     -18.731
  O      231.457    -858.720     -17.850
  H      231.795    -857.554     -19.495
  H      230.888    -856.761     -18.183
  H      230.091    -857.995     -19.217
  P      230.479    -859.072     -16.627
  C      232.486    -860.548     -15.896
  O      231.458    -859.653     -15.492
  C      233.641    -860.519     -14.898
  O      234.282    -859.234     -14.909
  C      233.226    -860.791     -13.462
  O      233.133    -862.179     -13.219
  C      234.403    -860.181     -12.710
  O      235.509    -861.115     -12.693
  C      234.768    -858.958     -13.570
  N      235.821    -854.281     -11.719
  C      236.601    -855.373     -11.889
  N      236.247    -856.604     -12.337
  C      234.927    -856.631     -12.626
  C      234.010    -855.604     -12.490
  C      234.510    -854.382     -12.022
  N      233.716    -853.265     -11.838
  N      232.755    -856.012     -12.889
  C      232.918    -857.257     -13.301
  N      234.219    -857.689     -13.125
  O      229.294    -859.914     -16.965
  O      230.136    -857.606     -16.073
  H      235.767    -861.252     -13.631
  H      230.933    -857.045     -16.090
  H      237.651    -855.256     -11.633
  H      232.151    -857.868     -13.750
  H      235.849    -858.824     -13.644
  H      234.171    -859.945     -11.674
  H      232.307    -860.250     -13.188
  H      234.391    -861.264     -15.236
  H      232.845    -860.272     -16.893
  H      234.097    -852.497     -11.322
  H      232.716    -853.379     -11.949
  H      232.045    -861.550     -15.957
  P      231.838    -862.815     -12.512
  C      232.967    -865.087     -12.090
  O      232.414    -863.922     -11.501
  O      230.781    -863.284     -13.458
  O      231.321    -861.664     -11.530
  H      230.407    -861.840     -11.258
  H      233.315    -865.745     -11.321
  H      233.786    -864.813     -12.722
  H      232.218    -865.583     -12.672

 6  7  8  9  10  11  12  13  14  15  25  28  32  33  34  35 0
 6-311+G(2d,p)
 ****
 36  39  40 0
 6-311+G(2d,p)
 ****
 1  2  3  4  5  16  17  18  19  20  21  22  23  24 0
 3-21G
 ****
 26  27  29  30  31  37  38  41  42  43  44  45  46  47 0
 3-21G
 ****
 48 0
 3-21G
 ****


