%nproc=1
%NoSave
%Mem=1900MB
#P OB98/GEN NMR

erre ene a

0 1
  C      -67.739     -61.062     101.296
  O      -67.566     -62.404     100.899
  P      -66.980     -63.501     101.906
  C      -64.673     -63.080     100.838
  O      -65.624     -64.059     101.245
  C      -63.467     -63.756     100.175
  O      -62.553     -62.717      99.702
  C      -62.686     -64.668     101.142
  O      -62.472     -65.995     100.659
  C      -61.426     -63.863     101.419
  O      -60.340     -64.638     101.889
  C      -61.228     -63.129     100.088
  N      -60.305     -62.003     100.202
  C      -58.960     -62.257      99.953
  O      -58.508     -63.354      99.636
  N      -58.108     -61.205     100.139
  C      -58.438     -59.987     100.649
  O      -57.606     -59.122     100.883
  C      -59.868     -59.789     100.931
  C      -60.728     -60.778     100.679
  O      -67.940     -64.563     102.323
  O      -66.418     -62.617     103.118
  H      -60.647     -65.142     102.666
  H      -65.730     -61.975     102.872
  H      -57.129     -61.376      99.962
  H      -60.160     -58.835     101.347
  H      -61.788     -60.662     100.876
  H      -60.858     -63.801      99.313
  H      -61.661     -63.134     102.204
  H      -63.237     -64.813     102.078
  H      -63.832     -64.317      99.311
  H      -64.336     -62.530     101.719
  H      -65.147     -62.361     100.162
  P      -63.102     -67.319     101.301
  C      -60.814     -68.149     102.215
  O      -61.945     -68.418     101.412
  O      -64.366     -67.794     100.668
  O      -63.357     -66.907     102.828
  H      -64.111     -67.414     103.181
  H      -59.959     -68.695     101.808
  H      -61.002     -68.504     103.231
  H      -60.578     -67.083     102.235
  H      -68.140     -60.498     100.480
  H      -66.794     -60.651     101.584
  H      -68.414     -61.019     102.125

 3  4  5  6  7  8  9  10  11  12  13  23  28  29  30  31  32 0
 6-311+G(2d,p)
 ****
 33  34 0
 6-311+G(2d,p)
 ****
 1  2  14  15  16  17  18  19  20  21  22  24  25  26  27 0
 3-21G
 ****
 35  36  37  38  39  40  41  42  43  44  45 0
 3-21G
 ****


