%nproc=1
%NoSave
%Mem=1900MB
#P OB98/GEN NMR

erre ene a

0 1
  C      405.421      69.245    -290.569
  O      404.022      69.422    -290.666
  H      405.657      68.204    -290.797
  H      405.770      69.467    -289.557
  H      405.935      69.885    -291.290
  P      403.404      70.847    -290.261
  C      401.620      71.045    -292.129
  O      401.877      70.772    -290.760
  C      400.119      71.211    -292.362
  O      399.437      69.943    -292.267
  C      399.411      72.111    -291.353
  O      399.676      73.490    -291.541
  C      397.963      71.746    -291.648
  O      397.547      72.390    -292.868
  C      398.073      70.212    -291.840
  N      397.757      69.462    -290.626
  C      396.415      69.118    -290.432
  O      395.559      69.438    -291.256
  N      396.065      68.445    -289.288
  C      396.971      68.158    -288.403
  N      396.560      67.533    -287.266
  C      398.397      68.489    -288.575
  C      398.718      69.136    -289.691
  O      404.168      72.051    -290.711
  O      403.227      70.768    -288.671
  H      398.148      72.081    -293.571
  H      402.859      71.633    -288.369
  H      399.110      68.234    -287.805
  H      399.746      69.429    -289.881
  H      397.411      69.876    -292.645
  H      397.270      72.057    -290.861
  H      399.644      71.804    -290.325
  H      399.982      71.573    -293.389
  H      395.569      67.362    -287.162
  H      402.019      70.218    -292.724
  H      397.135      67.528    -286.430
  H      402.118      71.973    -292.428
  P      399.787      74.421    -290.234
  C      401.943      75.294    -291.405
  O      400.820      75.592    -290.594
  O      400.596      73.500    -289.213
  O      398.485      74.902    -289.673
  H      399.990      73.003    -288.628
  H      402.525      76.180    -291.548
  H      401.611      74.929    -292.354
  H      402.541      74.548    -290.926

 6  7  8  9  10  11  12  13  14  15  16  26  30  31  32  33  35 0
 6-311+G(2d,p)
 ****
 37  38 0
 6-311+G(2d,p)
 ****
 1  2  3  4  5  17  18  19  20  21  22  23  24  25 0
 3-21G
 ****
 27  28  29  34  36  39  40  41  42  43  44  45  46 0
 3-21G
 ****


