%nproc=1
%NoSave
%Mem=1900MB
#P OB98/GEN NMR

erre ene a

0 1
  C     -295.439     122.116       4.470
  O     -295.081     120.744       4.231
  P     -295.927     119.891       3.164
  C     -297.481     118.736       4.913
  O     -297.377     119.541       3.750
  C     -298.943     118.384       5.222
  O     -299.701     119.594       5.514
  C     -299.675     117.660       4.082
  O     -300.620     116.767       4.686
  C     -300.406     118.797       3.388
  O     -301.492     118.358       2.586
  C     -300.819     119.635       4.601
  N     -301.179     121.017       4.283
  C     -302.240     121.589       4.975
  O     -302.936     120.996       5.796
  N     -302.512     122.901       4.671
  C     -301.871     123.662       3.737
  O     -302.183     124.820       3.489
  C     -300.780     122.994       3.013
  C     -300.489     121.726       3.317
  O     -295.188     118.467       3.215
  O     -295.918     120.423       1.768
  H     -301.977     119.153       2.294
  H     -295.039     118.142       2.309
  H     -303.267     123.337       5.173
  H     -300.241     123.564       2.269
  H     -299.677     121.217       2.805
  H     -301.659     119.151       5.110
  H     -299.704     119.333       2.738
  H     -299.001     117.108       3.419
  H     -298.961     117.775       6.133
  H     -297.061     119.280       5.766
  H     -296.894     117.823       4.768
  P     -300.533     115.201       4.327
  C     -302.122     115.494       2.269
  O     -300.878     115.053       2.771
  O     -301.861     114.667       5.052
  O     -299.287     114.527       4.803
  H     -302.630     115.230       4.885
  H     -302.418     116.444       2.719
  H     -302.885     114.740       2.472
  H     -302.037     115.629       1.189
  H     -294.781     122.534       5.203
  H     -296.447     122.165       4.827
  H     -295.356     122.670       3.558

 3  4  5  6  7  8  9  10  11  12  13  23  28  29  30  31  32 0
 6-311+G(2d,p)
 ****
 33  34 0
 6-311+G(2d,p)
 ****
 1  2  14  15  16  17  18  19  20  21  22  24  25  26 0
 3-21G
 ****
 27  35  36  37  38  39  40  41  42  43  44  45 0
 3-21G
 ****


