%nproc=1
%NoSave
%Mem=1900MB
#P OB98/GEN NMR

erre ene a

0 1
  C      222.592     288.457    -423.667
  O      223.983     288.285    -423.485
  H      222.363     289.526    -423.644
  H      222.049     287.963    -422.856
  H      222.275     288.048    -424.630
  P      224.558     286.800    -423.689
  C      226.934     285.866    -424.148
  O      226.049     286.965    -424.265
  C      228.379     286.323    -424.344
  O      228.618     286.645    -425.732
  C      228.751     287.571    -423.546
  O      229.102     287.254    -422.204
  C      229.966     288.049    -424.329
  O      231.112     287.237    -423.993
  C      229.534     287.779    -425.776
  N      229.591     290.955    -429.729
  C      230.455     289.929    -429.407
  N      231.485     289.719    -430.246
  N      230.324     289.173    -428.346
  C      229.250     289.496    -427.583
  C      228.322     290.493    -427.807
  C      228.473     291.315    -428.984
  O      227.726     292.225    -429.331
  N      227.368     290.515    -426.820
  C      227.731     289.554    -425.994
  N      228.870     288.905    -426.411
  O      223.733     286.254    -424.950
  O      224.423     285.893    -422.514
  H      231.245     287.324    -423.031
  H      223.566     285.299    -424.825
  H      229.746     291.510    -430.553
  H      227.206     289.279    -425.093
  H      230.372     287.500    -426.422
  H      230.230     289.084    -424.106
  H      231.678     290.294    -431.052
  H      227.967     288.330    -423.594
  H      232.118     288.950    -430.048
  H      229.040     285.487    -424.083
  H      226.689     285.118    -424.911
  H      226.818     285.417    -423.157
  P      228.607     288.256    -421.051
  C      227.453     287.956    -418.742
  O      228.006     287.323    -419.892
  O      227.302     288.929    -421.691
  O      229.613     289.271    -420.622
  H      227.126     289.789    -421.269
  H      227.095     287.211    -418.062
  H      226.642     288.588    -419.038
  H      228.207     288.544    -418.262

 6  7  8  9  10  11  12  13  14  15  26  29  33  34 0
 6-311+G(2d,p)
 ****
 36  38  39  40  41 0
 6-311+G(2d,p)
 ****
 1  2  3  4  5  16  17  18  19  20  21  22  23  24  25 0
 3-21G
 ****
 27  28  30  31  32  35  37  42  43  44  45  46  47 0
 3-21G
 ****
 48  49 0
 3-21G
 ****


