%nproc=1
%NoSave
%Mem=1900MB
#P OB98/GEN NMR

erre ene a

0 1
  C      363.294      41.468    -118.730
  O      363.312      42.754    -119.362
  P      362.442      43.900    -118.646
  C      364.023      45.800    -119.434
  O      362.703      45.280    -119.436
  C      364.164      46.972    -120.414
  O      364.030      46.520    -121.792
  C      363.123      48.080    -120.206
  O      363.767      49.324    -120.512
  C      362.091      47.777    -121.276
  O      361.265      48.906    -121.546
  C      363.016      47.344    -122.411
  N      360.690      47.821    -126.870
  C      361.179      48.787    -126.013
  N      361.082      50.068    -126.432
  N      361.719      48.525    -124.856
  C      361.789      47.196    -124.586
  C      361.357      46.137    -125.358
  C      360.729      46.456    -126.630
  O      360.287      45.635    -127.425
  N      361.630      44.934    -124.761
  C      362.165      45.271    -123.599
  N      362.339      46.623    -123.467
  O      363.198      44.112    -117.249
  O      361.011      43.541    -118.454
  H      361.862      49.657    -121.756
  H      362.724      43.646    -116.537
  H      360.271      48.081    -127.744
  H      362.473      44.577    -122.831
  H      363.511      48.201    -122.891
  H      361.445      46.945    -120.960
  H      360.722      50.339    -127.331
  H      362.691      48.113    -119.199
  H      361.468      50.796    -125.838
  H      365.174      47.389    -120.303
  H      364.735      45.017    -119.714
  H      364.288      46.100    -118.414
  P      363.661      50.503    -119.437
  C      366.172      51.097    -119.693
  O      364.834      51.549    -119.763
  O      364.158      49.803    -118.080
  O      362.294      51.081    -119.274
  H      363.623      50.127    -117.333
  H      366.783      51.712    -120.353
  H      366.264      50.052    -119.997
  H      366.537      51.209    -118.663
  H      363.903      40.788    -119.288
  H      362.289      41.102    -118.695
  H      363.677      41.554    -117.734

 3  4  5  6  7  8  9  10  11  12  23  26  30  31 0
 6-311+G(2d,p)
 ****
 33  35  36  37  38 0
 6-311+G(2d,p)
 ****
 1  2  13  14  15  16  17  18  19  20  21  22  24  25 0
 3-21G
 ****
 27  28  29  32  34  39  40  41  42  43  44  45  46  47  48  49 0
 3-21G
 ****


