%nproc=1
%NoSave
%Mem=1900MB
#P OB98/GEN NMR

erre ene a

0 1
  C      495.078     107.888    -119.562
  O      494.128     106.937    -119.110
  P      494.691     105.571    -118.477
  C      492.511     104.655    -117.392
  O      493.474     104.534    -118.436
  C      491.261     103.837    -117.731
  O      490.456     104.543    -118.700
  C      491.546     102.476    -118.348
  O      491.985     101.545    -117.367
  C      490.187     102.158    -118.967
  O      489.280     101.691    -117.952
  C      489.740     103.544    -119.478
  N      487.882     103.180    -124.241
  C      487.353     102.866    -123.038
  N      487.916     102.970    -121.818
  C      489.160     103.464    -121.909
  C      489.844     103.808    -123.061
  C      489.157     103.652    -124.277
  N      489.707     103.973    -125.500
  N      491.116     104.253    -122.764
  C      491.195     104.194    -121.453
  N      490.035     103.738    -120.892
  O      494.916     105.948    -116.940
  O      495.944     105.058    -119.115
  H      488.391     101.630    -118.361
  H      495.691     105.476    -116.574
  H      486.331     102.482    -123.060
  H      492.064     104.473    -120.868
  H      488.668     103.714    -119.335
  H      490.233     101.393    -119.746
  H      492.303     102.562    -119.134
  H      490.679     103.719    -116.806
  H      492.226     105.701    -117.272
  H      489.197     103.693    -126.326
  H      490.695     104.187    -125.535
  H      492.960     104.315    -116.452
  P      492.779     100.252    -117.883
  C      494.071      99.960    -115.680
  O      493.075      99.418    -116.535
  O      494.213     100.870    -118.232
  O      492.110      99.494    -118.975
  H      494.560     101.433    -117.518
  H      494.137      99.339    -114.783
  H      493.809     100.981    -115.382
  H      495.043      99.954    -116.182
  H      494.568     108.742    -119.956
  H      495.685     107.450    -120.327
  H      495.698     108.189    -118.744

 3  4  5  6  7  8  9  10  11  12  22  25  29  30  31  32 0
 6-311+G(2d,p)
 ****
 33  36  37 0
 6-311+G(2d,p)
 ****
 1  2  13  14  15  16  17  18  19  20  21  23  24  26 0
 3-21G
 ****
 27  28  34  35  38  39  40  41  42  43  44  45  46  47  48 0
 3-21G
 ****


