%nproc=1
%NoSave
%Mem=1900MB
#P OB98/GEN NMR

erre ene a

0 1
  C     -175.784     273.540      93.570
  O     -176.511     273.115      92.427
  P     -177.102     271.624      92.315
  C     -175.992     269.295      92.121
  O     -175.839     270.651      92.498
  C     -175.061     268.404      92.947
  O     -175.317     268.646      94.356
  C     -175.239     266.895      92.697
  O     -173.942     266.295      92.818
  C     -176.137     266.463      93.841
  O     -176.046     265.080      94.112
  C     -175.626     267.371      94.968
  N     -176.597     267.532      96.043
  C     -176.893     266.416      96.820
  O     -176.368     265.321      96.592
  N     -177.787     266.550      97.858
  C     -178.398     267.678      98.044
  N     -179.227     267.782      99.118
  C     -178.195     268.856      97.170
  C     -177.277     268.719      96.221
  O     -177.915     271.364      91.093
  O     -177.892     271.404      93.687
  H     -176.736     264.847      94.761
  H     -178.818     271.748      93.655
  H     -178.748     269.765      97.351
  H     -177.044     269.537      95.552
  H     -174.685     266.981      95.373
  H     -177.178     266.698      93.594
  H     -175.647     266.679      91.708
  H     -174.027     268.707      92.748
  H     -179.205     267.015      99.784
  H     -175.725     269.199      91.065
  H     -179.474     268.684      99.504
  H     -177.037     268.992      92.243
  P     -173.741     264.805      92.241
  C     -174.676     262.444      92.778
  O     -174.576     263.799      93.166
  O     -172.229     264.489      92.685
  O     -173.881     264.642      90.761
  H     -171.855     263.821      92.081
  H     -175.275     261.909      93.524
  H     -173.688     261.981      92.729
  H     -175.179     262.360      91.805
  H     -175.483     274.559      93.443
  H     -174.917     272.924      93.691
  H     -176.404     273.457      94.438

 3  4  5  6  7  8  9  10  11  12  13  23  27  28  29  30  32 0
 6-311+G(2d,p)
 ****
 34  35 0
 6-311+G(2d,p)
 ****
 1  2  14  15  16  17  18  19  20  21  22  24  25  26 0
 3-21G
 ****
 31  33  36  37  38  39  40  41  42  43  44  45  46 0
 3-21G
 ****


