%nproc=1
%NoSave
%Mem=1900MB
#P OB98/GEN NMR

erre ene a

0 1
  C     -183.957     123.816     164.016
  O     -184.815     123.985     165.126
  H     -183.035     124.377     164.195
  H     -184.431     124.197     163.107
  H     -183.708     122.758     163.893
  P     -186.272     123.325     165.025
  C     -187.186     125.545     164.025
  O     -187.073     124.135     163.894
  C     -187.955     126.111     162.831
  O     -187.325     125.685     161.599
  C     -189.395     125.627     162.736
  O     -190.265     126.312     163.622
  C     -189.705     125.921     161.280
  O     -190.117     127.282     161.088
  C     -188.356     125.644     160.589
  N     -188.365     124.372     159.868
  C     -187.486     124.285     158.788
  O     -186.741     125.203     158.448
  N     -187.522     123.114     158.084
  C     -188.366     122.065     158.316
  O     -188.386     121.064     157.610
  C     -189.285     122.221     159.457
  C     -189.247     123.351     160.168
  O     -186.977     123.781     166.388
  O     -186.280     121.840     164.859
  H     -187.035     123.024     166.999
  H     -189.306     127.822     161.173
  H     -186.892     123.030     157.303
  H     -189.971     121.409     159.665
  H     -189.921     123.496     161.004
  H     -188.123     126.441     159.872
  H     -190.507     125.286     160.913
  H     -189.442     124.539     162.899
  H     -187.920     127.206     162.878
  H     -186.186     125.995     164.046
  H     -187.696     125.778     164.966
  P     -191.477     125.483     164.273
  C     -193.319     126.300     162.572
  O     -192.524     125.237     163.085
  O     -192.152     126.616     165.183
  O     -191.026     124.263     165.007
  H     -191.991     127.510     164.828
  H     -193.948     125.930     161.789
  H     -192.682     127.067     162.185
  H     -193.925     126.702     163.356

 6  7  8  9  10  11  12  13  14  15  16  27  31  32  33  34  35 0
 6-311+G(2d,p)
 ****
 36  37 0
 6-311+G(2d,p)
 ****
 1  2  3  4  5  17  18  19  20  21  22  23  24  25 0
 3-21G
 ****
 26  28  29  30  38  39  40  41  42  43  44  45 0
 3-21G
 ****


