%nproc=1
%NoSave
%Mem=1900MB
#P OB98/GEN NMR

erre ene a

0 1
  C      104.360     -21.358    -136.932
  O      103.846     -20.068    -136.672
  H      103.585     -21.993    -137.366
  H      105.184     -21.272    -137.646
  H      104.739     -21.808    -136.010
  P      102.628     -19.968    -135.633
  C      101.045     -18.709    -137.264
  O      101.297     -19.898    -136.528
  C       99.837     -18.915    -138.172
  O      100.150     -19.870    -139.210
  C       98.605     -19.467    -137.461
  O       97.879     -18.457    -136.784
  C       97.823     -20.010    -138.644
  O       97.185     -18.926    -139.345
  C       98.938     -20.617    -139.505
  N       99.580     -25.229    -141.627
  C       99.339     -24.015    -142.165
  N       99.176     -22.835    -141.531
  C       99.283     -22.993    -140.201
  C       99.518     -24.168    -139.510
  C       99.678     -25.332    -140.282
  N       99.908     -26.576    -139.736
  N       99.528     -23.939    -138.147
  C       99.335     -22.643    -138.025
  N       99.172     -22.026    -139.238
  O      102.751     -18.482    -135.049
  O      102.605     -21.004    -134.560
  H       96.595     -18.488    -138.703
  H      102.281     -18.418    -134.197
  H       99.266     -23.987    -143.248
  H       99.306     -22.105    -137.086
  H       98.742     -20.518    -140.578
  H       97.038     -20.710    -138.352
  H       98.865     -20.296    -136.790
  H       99.610     -17.956    -138.658
  H      101.920     -18.472    -137.876
  H       99.822     -27.364    -140.359
  H       99.833     -26.682    -138.735
  H      100.862     -17.886    -136.567
  P       96.835     -18.928    -135.659
  C       94.866     -17.955    -137.053
  O       95.429     -19.094    -136.409
  O       96.635     -17.610    -134.775
  O       97.282     -20.098    -134.844
  H       96.375     -17.841    -133.863
  H       93.934     -18.225    -137.504
  H       95.539     -17.603    -137.807
  H       94.702     -17.182    -136.332

 6  7  8  9  10  11  12  13  14  15  25  28  32  33  34  35 0
 6-311+G(2d,p)
 ****
 36  39  40 0
 6-311+G(2d,p)
 ****
 1  2  3  4  5  16  17  18  19  20  21  22  23  24 0
 3-21G
 ****
 26  27  29  30  31  37  38  41  42  43  44  45  46  47 0
 3-21G
 ****
 48 0
 3-21G
 ****


