%nproc=1
%NoSave
%Mem=1900MB
#P OB98/GEN NMR

erre ene a

0 1
  C     -530.304    -175.480    -166.193
  O     -530.625    -176.346    -165.124
  H     -529.314    -175.053    -166.011
  H     -531.030    -174.665    -166.251
  H     -530.283    -176.025    -167.140
  P     -531.955    -177.233    -165.221
  C     -534.473    -176.756    -164.960
  O     -533.152    -176.348    -164.629
  C     -535.326    -176.834    -163.694
  O     -535.337    -175.550    -163.031
  C     -536.790    -177.165    -163.961
  O     -536.966    -178.533    -164.264
  C     -537.423    -176.705    -162.659
  O     -537.285    -177.699    -161.638
  C     -536.588    -175.451    -162.314
  N     -537.289    -174.212    -162.654
  C     -538.050    -173.641    -161.638
  O     -538.141    -174.116    -160.506
  N     -538.760    -172.528    -161.990
  C     -538.889    -172.025    -163.250
  O     -539.725    -171.184    -163.560
  C     -538.016    -172.629    -164.266
  C     -537.276    -173.689    -163.932
  O     -531.853    -178.614    -164.666
  O     -532.272    -177.259    -166.795
  H     -531.988    -178.116    -167.166
  H     -537.636    -177.291    -160.820
  H     -539.353    -172.130    -161.262
  H     -538.032    -172.214    -165.266
  H     -536.651    -174.177    -164.672
  H     -536.340    -175.436    -161.246
  H     -538.487    -176.499    -162.780
  H     -537.166    -176.543    -164.777
  H     -534.873    -177.567    -163.020
  H     -534.426    -177.748    -165.428
  H     -534.899    -176.044    -165.675
  P     -538.003    -178.982    -165.396
  C     -540.379    -178.338    -166.131
  O     -539.426    -178.321    -165.069
  O     -538.044    -180.446    -165.681
  O     -537.531    -178.167    -166.693
  H     -537.449    -178.795    -167.443
  H     -541.286    -177.874    -165.804
  H     -540.578    -179.350    -166.415
  H     -539.987    -177.803    -166.970

 6  7  8  9  10  11  12  13  14  15  16  27  31  32  33  34  35 0
 6-311+G(2d,p)
 ****
 36  37 0
 6-311+G(2d,p)
 ****
 1  2  3  4  5  17  18  19  20  21  22  23  24  25 0
 3-21G
 ****
 26  28  29  30  38  39  40  41  42  43  44  45 0
 3-21G
 ****


