%nproc=1
%NoSave
%Mem=1900MB
#P OB98/GEN NMR

erre ene a

0 1
  C      111.700    -141.437     341.802
  O      110.398    -140.964     341.463
  P      110.158    -140.590     339.919
  C      108.344    -141.248     338.183
  O      108.646    -140.975     339.543
  C      107.006    -141.983     338.059
  O      107.062    -143.315     338.620
  C      105.860    -141.278     338.766
  O      105.380    -140.207     337.963
  C      104.845    -142.407     338.931
  O      104.060    -142.578     337.736
  C      105.751    -143.630     339.162
  N      104.007    -146.762     342.755
  C      103.525    -146.519     341.475
  N      102.440    -147.227     341.099
  N      104.061    -145.659     340.653
  C      105.145    -145.020     341.168
  C      105.731    -145.195     342.396
  C      105.126    -146.151     343.309
  O      105.529    -146.418     344.436
  N      106.851    -144.413     342.533
  C      106.864    -143.677     341.436
  N      105.889    -144.057     340.543
  O      111.042    -141.666     339.136
  O      110.565    -139.196     339.578
  H      104.647    -142.504     336.961
  H      111.811    -141.230     338.727
  H      103.550    -147.424     343.351
  H      107.568    -142.892     341.229
  H      105.386    -144.508     338.610
  H      104.146    -142.205     339.740
  H      101.977    -147.914     341.689
  H      106.189    -140.915     339.754
  H      102.074    -147.071     340.171
  H      106.783    -142.082     336.988
  H      109.142    -141.846     337.733
  H      108.316    -140.297     337.633
  P      105.788    -138.717     338.376
  C      104.932    -136.600     337.142
  O      104.608    -137.744     337.899
  O      106.996    -138.383     337.371
  O      106.215    -138.561     339.799
  H      107.718    -137.941     337.864
  H      104.093    -136.362     336.483
  H      105.829    -136.759     336.523
  H      105.102    -135.751     337.817
  H      111.740    -141.652     342.849
  H      112.425    -140.687     341.564
  H      111.912    -142.327     341.247

 3  4  5  6  7  8  9  10  11  12  23  26  30  31 0
 6-311+G(2d,p)
 ****
 33  35  36  37  38 0
 6-311+G(2d,p)
 ****
 1  2  13  14  15  16  17  18  19  20  21  22  24  25 0
 3-21G
 ****
 27  28  29  32  34  39  40  41  42  43  44  45  46  47  48  49 0
 3-21G
 ****


