%nproc=1
%NoSave
%Mem=1900MB
#P OB98/GEN NMR

erre ene a

0 1
  C        4.995    -135.864     -87.320
  O        4.427    -134.638     -87.734
  H        5.960    -135.689     -86.837
  H        4.323    -136.339     -86.600
  H        5.124    -136.531     -88.177
  P        5.257    -133.780     -88.807
  C        7.676    -132.833     -88.880
  O        6.645    -133.411     -88.090
  C        8.887    -132.535     -88.002
  O        8.620    -131.396     -87.153
  C        9.275    -133.670     -87.061
  O       10.037    -134.670     -87.711
  C       10.110    -132.914     -86.043
  O       11.415    -132.647     -86.587
  C        9.317    -131.609     -85.895
  N        8.316    -130.055     -81.124
  C        9.389    -129.877     -81.923
  N        9.581    -130.328     -83.180
  C        8.516    -131.028     -83.600
  C        7.355    -131.299     -82.895
  C        7.271    -130.770     -81.596
  N        6.184    -130.961     -80.772
  N        6.499    -132.081     -83.646
  C        7.121    -132.249     -84.795
  N        8.347    -131.641     -84.814
  O        4.485    -132.377     -88.845
  O        5.396    -134.393     -90.159
  H       11.798    -133.512     -86.830
  H        4.691    -131.905     -89.673
  H       10.204    -129.298     -81.495
  H        6.727    -132.799     -85.639
  H        9.964    -130.740     -85.727
  H       10.257    -133.468     -85.113
  H        8.395    -134.096     -86.559
  H        9.726    -132.271     -88.660
  H        7.311    -131.901     -89.321
  H        6.300    -130.701     -79.804
  H        5.471    -131.615     -81.060
  H        7.947    -133.526     -89.681
  P        9.621    -136.199     -87.456
  C        9.471    -137.680     -85.323
  O       10.007    -136.509     -85.932
  O       10.708    -137.018     -88.293
  O        8.222    -136.539     -87.852
  H       10.356    -137.886     -88.565
  H        9.818    -137.747     -84.313
  H        9.790    -138.544     -85.868
  H        8.402    -137.629     -85.330

 6  7  8  9  10  11  12  13  14  15  25  28  32  33  34  35 0
 6-311+G(2d,p)
 ****
 36  39  40 0
 6-311+G(2d,p)
 ****
 1  2  3  4  5  16  17  18  19  20  21  22  23  24 0
 3-21G
 ****
 26  27  29  30  31  37  38  41  42  43  44  45  46  47 0
 3-21G
 ****
 48 0
 3-21G
 ****


