%nproc=1
%NoSave
%Mem=1900MB
#P OB98/GEN NMR

erre ene a

0 1
  C       77.805    -104.566      34.532
  O       77.805    -103.498      33.607
  H       76.799    -104.670      34.948
  H       78.500    -104.352      35.347
  H       78.082    -105.503      34.041
  P       79.135    -103.306      32.730
  C       80.634    -101.235      33.175
  O       80.172    -102.492      33.646
  C       79.570    -100.164      33.395
  O       79.126    -100.173      34.771
  C       80.042     -98.743      33.110
  O       79.983     -98.433      31.724
  C       79.015     -97.945      33.895
  O       77.773     -97.897      33.165
  C       78.855     -98.797      35.161
  N       79.207     -96.482      39.659
  C       78.112     -96.655      38.832
  N       76.948     -96.126      39.260
  N       78.157     -97.283      37.686
  C       79.391     -97.750      37.380
  C       80.550     -97.645      38.116
  C       80.486     -96.955      39.384
  O       81.419     -96.793      40.166
  N       81.604     -98.252      37.485
  C       81.088     -98.706      36.359
  N       79.750     -98.422      36.243
  O       78.697    -102.230      31.624
  O       79.669    -104.546      32.097
  H       77.091     -97.594      33.793
  H       79.145    -102.444      30.784
  H       79.122     -95.981      40.524
  H       81.638     -99.247      35.600
  H       77.836     -98.763      35.562
  H       79.324     -96.912      34.068
  H       76.855     -95.588      40.108
  H       81.042     -98.559      33.525
  H       76.124     -96.268      38.688
  H       78.704    -100.416      32.769
  H       80.855    -101.309      32.105
  H       81.553    -100.970      33.711
  P       81.017     -97.341      31.160
  C       80.062     -94.965      30.719
  O       80.476     -95.924      31.686
  O       80.686     -97.306      29.596
  O       82.454     -97.636      31.424
  H       81.458     -96.973      29.098
  H       79.729     -94.078      31.216
  H       79.261     -95.369      30.136
  H       80.885     -94.727      30.078

 6  7  8  9  10  11  12  13  14  15  26  29  33  34 0
 6-311+G(2d,p)
 ****
 36  38  39  40  41 0
 6-311+G(2d,p)
 ****
 1  2  3  4  5  16  17  18  19  20  21  22  23  24  25 0
 3-21G
 ****
 27  28  30  31  32  35  37  42  43  44  45  46  47 0
 3-21G
 ****
 48  49 0
 3-21G
 ****


