%nproc=1
%NoSave
%Mem=1900MB
#P OB98/GEN NMR

erre ene a

0 1
  C        5.139     345.201     231.312
  O        3.826     345.683     231.083
  P        2.762     345.758     232.274
  C        0.620     345.316     230.820
  O        1.480     344.904     231.860
  C        0.281     344.096     229.947
  O        1.486     343.390     229.587
  C       -0.639     343.124     230.678
  O       -1.996     343.375     230.354
  C       -0.144     341.775     230.195
  O       -0.698     341.463     228.904
  C        1.379     342.027     230.077
  N        2.201     341.918     231.301
  C        3.580     341.772     231.191
  O        4.185     341.760     230.119
  N        4.260     341.616     232.375
  C        3.702     341.639     233.622
  O        4.271     341.259     234.640
  C        2.299     342.064     233.678
  C        1.620     342.162     232.537
  O        2.239     347.269     232.195
  O        3.290     345.418     233.630
  H       -0.294     342.081     228.263
  H        2.692     347.825     232.855
  H        5.243     341.373     232.296
  H        1.855     342.232     234.647
  H        0.566     342.433     232.558
  H        1.833     341.368     229.326
  H       -0.460     340.973     230.863
  H       -0.478     343.188     231.762
  H       -0.196     344.448     229.019
  H        1.107     346.092     230.217
  H       -0.292     345.749     231.235
  P       -2.980     343.971     231.467
  C       -3.588     341.612     232.273
  O       -3.020     342.858     232.626
  O       -4.309     344.430     230.975
  O       -2.128     345.171     232.104
  H       -2.403     346.020     231.701
  H       -3.398     340.898     233.081
  H       -3.142     341.231     231.351
  H       -4.670     341.719     232.148
  H        5.694     345.229     230.398
  H        5.092     344.194     231.670
  H        5.623     345.816     232.042

 3  4  5  6  7  8  9  10  11  12  13  23  28  29  30  31  32 0
 6-311+G(2d,p)
 ****
 33  34 0
 6-311+G(2d,p)
 ****
 1  2  14  15  16  17  18  19  20  21  22  24  25  26  27 0
 3-21G
 ****
 35  36  37  38  39  40  41  42  43  44  45 0
 3-21G
 ****


