%nproc=1
%NoSave
%Mem=1900MB
#P OB98/GEN NMR

erre ene a

0 1
  C      -67.060     138.493      95.727
  O      -66.677     139.407      96.733
  H      -66.878     138.948      94.750
  H      -68.124     138.256      95.811
  H      -66.468     137.578      95.806
  P      -66.959     138.974      98.251
  C      -68.774     140.757      98.781
  O      -67.454     140.288      99.025
  C      -69.153     141.785      99.843
  O      -69.174     141.158     101.147
  C      -68.172     142.941      99.966
  O      -68.347     143.920      98.956
  C      -68.519     143.467     101.348
  O      -69.630     144.374     101.306
  C      -68.877     142.182     102.117
  N      -67.810     141.783     103.030
  C      -68.164     141.701     104.374
  O      -69.295     141.942     104.790
  N      -67.157     141.368     105.236
  C      -65.850     141.165     104.901
  O      -64.985     140.923     105.733
  C      -65.531     141.281     103.469
  C      -66.509     141.585     102.612
  O      -65.492     138.717      98.837
  O      -67.842     137.782      98.412
  H      -65.340     137.760      98.936
  H      -69.711     144.741     102.209
  H      -67.393     141.301     106.214
  H      -64.503     141.128     103.168
  H      -66.297     141.688     101.552
  H      -69.791     142.331     102.706
  H      -67.681     144.005     101.782
  H      -67.142     142.564      99.978
  H      -70.163     142.156      99.623
  H      -69.477     139.920      98.831
  H      -68.818     141.193      97.779
  P      -67.247     143.994      97.790
  C      -67.707     146.578      97.989
  O      -67.365     145.469      97.173
  O      -67.916     143.040      96.694
  O      -65.886     143.587      98.240
  H      -68.885     143.019      96.776
  H      -67.733     147.466      97.392
  H      -66.977     146.690      98.763
  H      -68.669     146.415      98.428

 6  7  8  9  10  11  12  13  14  15  16  27  31  32  33  34  35 0
 6-311+G(2d,p)
 ****
 36  37 0
 6-311+G(2d,p)
 ****
 1  2  3  4  5  17  18  19  20  21  22  23  24  25 0
 3-21G
 ****
 26  28  29  30  38  39  40  41  42  43  44  45 0
 3-21G
 ****


