%nproc=1
%NoSave
%Mem=1900MB
#P OB98/GEN NMR

erre ene a

0 1
  C      165.632     206.119      28.955
  O      166.584     207.151      29.104
  H      164.970     206.370      28.122
  H      165.034     206.027      29.864
  H      166.128     205.170      28.736
  P      167.682     206.974      30.263
  C      169.236     208.690      29.071
  O      168.521     208.347      30.251
  C      169.670     210.156      29.117
  O      168.507     211.002      28.961
  C      170.359     210.546      30.427
  O      171.493     211.365      30.141
  C      169.302     211.332      31.182
  O      169.874     212.258      32.104
  C      168.493     211.957      30.039
  N      167.126     212.272      30.452
  C      166.944     213.455      31.173
  O      167.910     214.171      31.446
  N      165.687     213.774      31.616
  C      164.703     212.954      31.411
  N      163.484     213.315      31.893
  C      164.859     211.672      30.696
  C      166.082     211.401      30.244
  O      168.696     205.909      29.636
  O      167.142     206.587      31.598
  H      169.150     212.811      32.468
  H      169.307     205.545      30.322
  H      164.012     211.014      30.562
  H      166.289     210.481      29.710
  H      168.973     212.876      29.683
  H      168.671     210.639      31.752
  H      170.686     209.682      31.005
  H      170.318     210.353      28.255
  H      163.419     214.198      32.388
  H      168.590     208.524      28.204
  H      162.658     212.741      31.816
  H      170.119     208.049      28.989
  P      172.753     210.616      29.483
  C      173.542     212.747      28.236
  O      173.868     211.730      29.170
  O      172.218     210.188      28.038
  O      173.238     209.452      30.281
  H      171.952     209.250      28.035
  H      174.373     213.412      28.129
  H      172.691     213.293      28.586
  H      173.316     212.303      27.289

 6  7  8  9  10  11  12  13  14  15  16  26  30  31  32  33  35 0
 6-311+G(2d,p)
 ****
 37  38 0
 6-311+G(2d,p)
 ****
 1  2  3  4  5  17  18  19  20  21  22  23  24  25 0
 3-21G
 ****
 27  28  29  34  36  39  40  41  42  43  44  45  46 0
 3-21G
 ****


