%nproc=1
%NoSave
%Mem=1900MB
#P OB98/GEN NMR

erre ene a

0 1
  C       23.580      43.180     -89.745
  O       24.440      44.109     -90.367
  H       24.030      42.868     -88.800
  H       23.459      42.301     -90.384
  H       22.603      43.622     -89.538
  P       23.888      44.969     -91.599
  C       23.460      44.512     -94.103
  O       23.635      43.949     -92.812
  C       22.539      43.632     -94.959
  O       23.187      42.355     -95.187
  C       21.216      43.340     -94.241
  O       20.147      43.110     -95.156
  C       21.516      42.048     -93.498
  O       20.343      41.301     -93.176
  C       22.448      41.342     -94.482
  N       25.649      37.419     -95.075
  C       24.742      37.949     -95.972
  N       24.685      37.356     -97.189
  N       23.950      38.951     -95.695
  C       24.067      39.396     -94.421
  C       24.910      38.939     -93.434
  C       25.807      37.850     -93.764
  O       26.613      37.328     -92.999
  N       24.736      39.633     -92.262
  C       23.787      40.505     -92.537
  N       23.366      40.419     -93.842
  O       25.175      45.785     -92.098
  O       22.744      45.885     -91.287
  H       20.634      40.444     -92.811
  H       24.903      46.577     -92.594
  H       26.256      36.666     -95.349
  H       23.384      41.228     -91.838
  H       21.870      40.774     -95.221
  H       22.006      42.301     -92.554
  H       25.130      36.470     -97.369
  H       20.928      44.130     -93.551
  H       23.832      37.521     -97.732
  H       22.388      44.091     -95.942
  H       24.451      44.586     -94.557
  H       23.063      45.525     -94.026
  P       19.539      44.360     -95.953
  C       18.169      46.530     -95.305
  O       18.637      45.241     -94.974
  O       18.485      43.697     -96.953
  O       20.559      45.184     -96.679
  H       18.762      43.832     -97.879
  H       17.588      46.918     -94.494
  H       17.561      46.474     -96.184
  H       19.002      47.176     -95.488

 6  7  8  9  10  11  12  13  14  15  26  29  33  34 0
 6-311+G(2d,p)
 ****
 36  38  39  40  41 0
 6-311+G(2d,p)
 ****
 1  2  3  4  5  16  17  18  19  20  21  22  23  24  25 0
 3-21G
 ****
 27  28  30  31  32  35  37  42  43  44  45  46  47 0
 3-21G
 ****
 48  49 0
 3-21G
 ****


