%nproc=1
%NoSave
%Mem=1900MB
#P OB98/GEN NMR

erre ene a

0 1
  C     -315.481    -845.968    -110.239
  O     -315.589    -844.954    -109.257
  P     -314.511    -844.825    -108.082
  C     -313.480    -842.582    -108.780
  O     -314.260    -843.262    -107.809
  C     -313.823    -841.087    -108.827
  O     -315.060    -840.895    -109.557
  C     -313.995    -840.452    -107.433
  O     -313.437    -839.132    -107.505
  C     -315.506    -840.380    -107.280
  O     -315.912    -839.396    -106.329
  C     -315.932    -840.112    -108.722
  N     -317.331    -840.434    -108.960
  C     -318.276    -839.450    -108.655
  O     -317.923    -838.417    -108.089
  N     -319.585    -839.675    -108.981
  C     -319.946    -840.844    -109.419
  N     -321.249    -840.999    -109.806
  C     -319.016    -841.985    -109.523
  C     -317.735    -841.709    -109.316
  O     -313.268    -845.627    -108.274
  O     -315.304    -845.296    -106.766
  H     -314.790    -846.010    -106.318
  H     -316.889    -839.442    -106.240
  H     -319.389    -842.979    -109.748
  H     -316.965    -842.470    -109.389
  H     -315.773    -839.056    -108.983
  H     -315.886    -841.352    -106.947
  H     -313.504    -841.010    -106.642
  H     -313.026    -840.573    -109.371
  H     -321.843    -840.184    -109.760
  H     -313.702    -843.023    -109.757
  H     -321.533    -841.755    -110.429
  H     -312.420    -842.732    -108.574
  P     -312.272    -838.748    -106.467
  C     -310.585    -837.990    -108.311
  O     -311.345    -837.630    -107.161
  O     -311.326    -840.052    -106.553
  O     -312.676    -838.512    -105.053
  H     -310.823    -840.131    -105.714
  H     -309.975    -837.128    -108.597
  H     -311.257    -838.243    -109.130
  H     -309.939    -838.831    -108.087
  H     -316.294    -845.883    -110.930
  H     -315.513    -846.927    -109.766
  H     -314.554    -845.860    -110.763

 3  4  5  6  7  8  9  10  11  12  13  24  27  28  29  30  32 0
 6-311+G(2d,p)
 ****
 34  35 0
 6-311+G(2d,p)
 ****
 1  2  14  15  16  17  18  19  20  21  22  23  25  26 0
 3-21G
 ****
 31  33  36  37  38  39  40  41  42  43  44  45  46 0
 3-21G
 ****


