%nproc=1
%NoSave
%Mem=1900MB
#P OB98/GEN NMR

erre ene a

0 1
  C     -116.889     484.530     935.500
  O     -117.733     484.042     934.476
  P     -118.942     484.929     933.907
  C     -120.874     486.277     934.993
  O     -119.778     485.396     935.203
  C     -122.164     485.578     935.405
  O     -122.288     485.540     936.829
  C     -123.439     486.253     934.891
  O     -123.649     485.993     933.513
  C     -124.485     485.661     935.826
  O     -124.856     484.343     935.394
  C     -123.707     485.574     937.154
  N     -124.006     486.672     938.068
  C     -124.729     486.357     939.210
  O     -125.102     485.207     939.432
  N     -125.028     487.359     940.121
  C     -124.638     488.563     939.880
  N     -124.898     489.496     940.834
  C     -123.921     488.976     938.659
  C     -123.638     487.978     937.800
  O     -119.765     484.281     932.848
  O     -118.261     486.304     933.428
  H     -125.122     484.409     934.465
  H     -117.934     486.276     932.490
  H     -123.630     490.003     938.501
  H     -123.076     488.190     936.905
  H     -123.915     484.639     937.672
  H     -125.389     486.261     935.895
  H     -123.374     487.336     935.053
  H     -122.126     484.531     935.036
  H     -125.237     489.161     941.736
  H     -120.925     486.529     933.933
  H     -124.397     490.389     940.865
  H     -120.717     487.184     935.587
  P     -124.119     487.217     932.576
  C     -125.883     489.085     932.899
  O     -125.480     487.760     933.232
  O     -124.567     486.491     931.224
  O     -123.059     488.244     932.345
  H     -123.876     486.593     930.544
  H     -126.930     489.199     933.208
  H     -125.821     489.242     931.809
  H     -125.262     489.808     933.430
  H     -116.151     483.792     935.736
  H     -117.472     484.743     936.372
  H     -116.405     485.425     935.167

 3  4  5  6  7  8  9  10  11  12  13  23  27  28  29  30  32 0
 6-311+G(2d,p)
 ****
 34  35 0
 6-311+G(2d,p)
 ****
 1  2  14  15  16  17  18  19  20  21  22  24  25  26 0
 3-21G
 ****
 31  33  36  37  38  39  40  41  42  43  44  45  46 0
 3-21G
 ****


