%nproc=1
%NoSave
%Mem=1900MB
#P OB98/GEN NMR

erre ene a

0 1
  C      -84.842      -5.223     120.854
  O      -84.832      -5.227     119.426
  P      -84.419      -3.888     118.645
  C      -81.978      -3.418     119.302
  O      -82.848      -3.946     118.311
  C      -80.667      -4.208     119.410
  O      -80.928      -5.605     119.722
  C      -79.804      -4.180     118.140
  O      -78.435      -4.165     118.564
  C      -80.150      -5.503     117.485
  O      -79.187      -5.899     116.519
  C      -80.265      -6.401     118.720
  N      -80.985      -7.635     118.450
  C      -80.258      -8.691     117.898
  O      -79.085      -8.523     117.565
  N      -80.891      -9.896     117.709
  C      -82.169      -9.986     117.913
  N      -82.757     -11.203     117.736
  C      -83.002      -8.841     118.324
  C      -82.348      -7.716     118.595
  O      -84.880      -2.613     119.271
  O      -85.093      -4.095     117.204
  H      -79.422      -6.789     116.181
  H      -85.385      -3.226     116.864
  H      -84.075      -8.943     118.399
  H      -82.867      -6.822     118.909
  H      -79.270      -6.655     119.112
  H      -81.121      -5.421     116.980
  H      -79.993      -3.309     117.506
  H      -80.093      -3.793     120.250
  H      -82.175     -11.974     117.429
  H      -82.487      -3.433     120.271
  H      -83.736     -11.365     117.924
  H      -81.783      -2.363     119.079
  P      -77.594      -2.806     118.418
  C      -77.841      -1.674     120.745
  O      -77.026      -2.421     119.867
  O      -78.762      -1.719     118.220
  O      -76.637      -2.743     117.271
  H      -78.398      -0.948     117.742
  H      -77.423      -1.748     121.754
  H      -78.864      -2.061     120.767
  H      -77.849      -0.624     120.444
  H      -85.138      -6.187     121.211
  H      -85.534      -4.485     121.204
  H      -83.862      -4.993     121.217

 3  4  5  6  7  8  9  10  11  12  13  23  27  28  29  30  32 0
 6-311+G(2d,p)
 ****
 34  35 0
 6-311+G(2d,p)
 ****
 1  2  14  15  16  17  18  19  20  21  22  24  25  26 0
 3-21G
 ****
 31  33  36  37  38  39  40  41  42  43  44  45  46 0
 3-21G
 ****


