%nproc=1
%NoSave
%Mem=1900MB
#P OB98/GEN NMR

erre ene a

0 1
  C     -158.951     303.117    -426.926
  O     -159.845     304.201    -426.792
  P     -160.384     304.659    -425.362
  C     -162.847     304.694    -426.088
  O     -161.762     305.456    -425.573
  C     -163.817     305.581    -426.867
  O     -164.299     306.644    -426.013
  C     -163.226     306.222    -428.127
  O     -164.239     306.217    -429.136
  C     -162.922     307.636    -427.678
  O     -162.830     308.543    -428.772
  C     -164.094     307.881    -426.719
  N     -163.828     308.975    -425.796
  C     -163.620     310.238    -426.370
  O     -163.535     310.361    -427.591
  N     -163.497     311.324    -425.530
  C     -163.413     311.130    -424.244
  N     -163.367     312.249    -423.455
  C     -163.378     309.795    -423.634
  C     -163.634     308.779    -424.444
  O     -159.384     305.374    -424.502
  O     -160.859     303.297    -424.661
  H     -160.428     303.216    -423.785
  H     -162.532     309.419    -428.428
  H     -163.181     309.683    -422.576
  H     -163.674     307.756    -424.084
  H     -165.008     308.099    -427.274
  H     -161.969     307.658    -427.136
  H     -162.346     305.680    -428.502
  H     -164.689     304.959    -427.141
  H     -163.415     313.144    -423.909
  H     -163.370     304.232    -425.244
  H     -163.608     312.209    -422.466
  H     -162.463     303.878    -426.718
  P     -163.799     305.955    -430.664
  C     -165.139     308.105    -431.235
  O     -164.805     306.786    -431.608
  O     -164.297     304.445    -430.900
  O     -162.341     306.055    -430.964
  H     -163.768     304.037    -431.604
  H     -165.873     308.492    -431.941
  H     -164.255     308.752    -431.263
  H     -165.584     308.126    -430.233
  H     -158.715     302.975    -427.960
  H     -159.406     302.229    -426.539
  H     -158.054     303.325    -426.380

 3  4  5  6  7  8  9  10  11  12  13  24  27  28  29  30  32 0
 6-311+G(2d,p)
 ****
 34  35 0
 6-311+G(2d,p)
 ****
 1  2  14  15  16  17  18  19  20  21  22  23  25  26 0
 3-21G
 ****
 31  33  36  37  38  39  40  41  42  43  44  45  46 0
 3-21G
 ****


