%nproc=1
%NoSave
%Mem=1900MB
#P OB98/GEN NMR

erre ene a

0 1
  C     -795.151    -812.004     123.765
  O     -796.504    -811.677     123.437
  P     -797.719    -811.947     124.447
  C     -798.576    -814.171     123.449
  O     -797.954    -813.547     124.558
  C     -798.583    -815.709     123.599
  O     -798.831    -816.075     124.975
  C     -799.621    -816.425     122.752
  O     -799.182    -816.524     121.410
  C     -799.715    -817.750     123.508
  O     -798.650    -818.635     123.121
  C     -799.568    -817.301     124.960
  N     -803.294    -819.708     127.510
  C     -802.146    -820.152     126.990
  N     -801.192    -819.450     126.309
  C     -801.536    -818.156     126.226
  C     -802.694    -817.553     126.728
  C     -803.612    -818.399     127.398
  N     -804.792    -817.960     127.930
  N     -802.718    -816.214     126.446
  C     -801.571    -815.984     125.799
  N     -800.837    -817.141     125.659
  O     -798.964    -811.173     124.124
  O     -797.150    -811.533     125.887
  H     -798.711    -819.410     123.694
  H     -797.887    -811.247     126.464
  H     -801.940    -821.225     127.097
  H     -801.257    -815.016     125.443
  H     -798.984    -818.044     125.555
  H     -800.675    -818.266     123.283
  H     -800.576    -815.900     122.808
  H     -797.557    -816.050     123.359
  H     -798.006    -813.892     122.541
  H     -805.407    -818.629     128.365
  H     -805.054    -816.982     127.799
  H     -799.599    -813.800     123.346
  P     -799.762    -815.500     120.301
  C     -801.362    -817.227     119.305
  O     -801.238    -815.977     119.949
  O     -798.859    -815.265     119.135
  O     -799.993    -814.164     121.130
  H     -799.875    -813.387     120.548
  H     -801.144    -817.112     118.236
  H     -802.399    -817.584     119.420
  H     -800.682    -817.958     119.760
  H     -794.512    -811.739     122.949
  H     -795.073    -813.055     123.952
  H     -794.855    -811.463     124.640

 3  4  5  6  7  8  9  10  11  12  22  25  29  30  31  32 0
 6-311+G(2d,p)
 ****
 33  36  37 0
 6-311+G(2d,p)
 ****
 1  2  13  14  15  16  17  18  19  20  21  23  24  26 0
 3-21G
 ****
 27  28  34  35  38  39  40  41  42  43  44  45  46  47  48 0
 3-21G
 ****


