%nproc=1
%NoSave
%Mem=1900MB
#P OB98/GEN NMR

erre ene a

0 1
  C      154.332     241.940    -729.335
  O      154.810     240.738    -729.913
  H      154.898     242.136    -728.421
  H      153.275     241.840    -729.086
  H      154.476     242.773    -730.028
  P      154.118     240.275    -731.289
  C      155.119     237.881    -731.114
  O      153.950     238.684    -731.198
  C      154.776     236.528    -730.499
  O      154.531     236.689    -729.076
  C      153.506     235.902    -731.056
  O      153.718     235.289    -732.317
  C      153.155     234.914    -729.957
  O      153.890     233.693    -730.094
  C      153.593     235.658    -728.687
  N      148.724     234.960    -727.316
  C      149.616     234.148    -727.930
  N      150.900     234.411    -728.246
  C      151.253     235.638    -727.838
  C      150.451     236.574    -727.201
  C      149.127     236.197    -726.930
  N      148.217     237.018    -726.325
  N      151.156     237.738    -726.974
  C      152.355     237.513    -727.462
  N      152.464     236.254    -727.992
  O      155.289     240.474    -732.362
  O      152.883     241.027    -731.661
  H      153.612     233.299    -730.946
  H      155.148     241.312    -732.843
  H      149.242     233.168    -728.215
  H      153.183     238.223    -727.465
  H      154.103     235.004    -727.977
  H      152.090     234.668    -729.979
  H      152.711     236.656    -731.126
  H      155.636     235.853    -730.623
  H      155.865     238.383    -730.487
  H      155.538     237.756    -732.120
  H      147.263     236.707    -726.226
  H      148.473     237.983    -726.139
  P      153.065     235.981    -733.609
  C      152.318     233.698    -734.616
  O      151.935     234.991    -734.166
  O      154.223     235.909    -734.715
  O      152.595     237.383    -733.380
  H      154.192     236.710    -735.275
  H      151.453     233.167    -734.953
  H      152.775     233.161    -733.811
  H      153.015     233.793    -735.422

 6  7  8  9  10  11  12  13  14  15  25  28  32  33  34  35 0
 6-311+G(2d,p)
 ****
 36  37  40 0
 6-311+G(2d,p)
 ****
 1  2  3  4  5  16  17  18  19  20  21  22  23  24 0
 3-21G
 ****
 26  27  29  30  31  38  39 41  42  43  44  45  46  47  48 0
 3-21G
 ****


