%nproc=1
%NoSave
%Mem=1900MB
#P OB98/GEN NMR

erre ene a

0 1
  C      -10.263     100.263    -448.039
  O      -11.488     100.907    -447.719
  P      -12.890     100.337    -448.260
  C      -12.698     101.917    -450.296
  O      -12.854     100.574    -449.845
  C      -12.453     101.929    -451.802
  O      -11.265     101.166    -452.108
  C      -13.567     101.303    -452.630
  O      -14.680     102.183    -452.739
  C      -12.827     101.015    -453.935
  O      -12.720     102.207    -454.724
  C      -11.433     100.596    -453.430
  N      -11.254      99.140    -453.391
  C      -10.067      98.649    -453.944
  O       -9.224      99.417    -454.418
  N       -9.829      97.296    -453.909
  C      -10.723      96.495    -453.401
  N      -10.407      95.172    -453.336
  C      -12.012      96.967    -452.861
  C      -12.200      98.288    -452.881
  O      -14.096     100.880    -447.570
  O      -12.744      98.744    -448.148
  H      -13.621     102.577    -454.805
  H      -13.024      98.386    -447.268
  H      -12.724      96.258    -452.453
  H      -13.121      98.717    -452.485
  H      -10.651     101.038    -454.053
  H      -13.317     100.246    -454.550
  H      -13.897     100.361    -452.177
  H      -12.280     102.973    -452.114
  H       -9.445      94.923    -453.551
  H      -11.834     102.361    -449.791
  H      -10.900      94.547    -452.709
  H      -13.597     102.494    -450.037
  P      -16.149     101.534    -452.694
  C      -16.323     101.356    -455.284
  O      -16.282     100.665    -454.047
  O      -17.113     102.788    -452.937
  O      -16.459     100.800    -451.425
  H      -17.491     103.084    -452.086
  H      -16.169     100.631    -456.082
  H      -15.526     102.109    -455.337
  H      -17.295     101.822    -455.419
  H       -9.452     100.794    -447.586
  H      -10.133     100.251    -449.101
  H      -10.281      99.259    -447.671

 3  4  5  6  7  8  9  10  11  12  13  23  27  28  29  30  32 0
 6-311+G(2d,p)
 ****
 34  35 0
 6-311+G(2d,p)
 ****
 1  2  14  15  16  17  18  19  20  21  22  24  25  26 0
 3-21G
 ****
 31  33  36  37  38  39  40  41  42  43  44  45  46 0
 3-21G
 ****


