%nproc=1
%NoSave
%Mem=1900MB
#P OB98/GEN NMR

erre ene a

0 1
  C     -153.490    -253.315    -334.272
  O     -153.670    -252.799    -335.577
  H     -152.445    -253.615    -334.154
  H     -154.128    -254.191    -334.123
  H     -153.727    -252.551    -333.528
  P     -155.163    -252.357    -335.967
  C     -154.648    -250.046    -334.912
  O     -155.545    -251.145    -334.987
  C     -155.294    -248.880    -334.167
  O     -154.344    -247.813    -333.968
  C     -156.496    -248.271    -334.877
  O     -157.676    -249.008    -334.603
  C     -156.521    -246.874    -334.270
  O     -157.136    -246.889    -332.963
  C     -155.026    -246.544    -334.164
  N     -154.154    -242.015    -336.217
  C     -154.819    -242.353    -335.057
  N     -155.361    -241.337    -334.346
  N     -154.957    -243.582    -334.630
  C     -154.421    -244.499    -335.466
  C     -153.738    -244.293    -336.643
  C     -153.546    -242.924    -337.076
  O     -152.897    -242.554    -338.048
  N     -153.328    -245.478    -337.197
  C     -153.790    -246.400    -336.374
  N     -154.464    -245.856    -335.309
  O     -156.063    -253.566    -335.425
  O     -155.401    -252.117    -337.418
  H     -157.167    -245.981    -332.614
  H     -156.789    -253.724    -336.057
  H     -154.054    -241.052    -336.481
  H     -153.656    -247.465    -336.496
  H     -154.807    -245.921    -333.287
  H     -157.106    -246.182    -334.877
  H     -155.540    -240.432    -334.760
  H     -156.320    -248.192    -335.958
  H     -155.910    -241.594    -333.537
  H     -155.580    -249.243    -333.172
  H     -154.389    -249.730    -335.928
  H     -153.739    -250.358    -334.392
  P     -159.007    -248.636    -335.413
  C     -159.216    -250.334    -337.370
  O     -158.782    -249.047    -336.950
  O     -158.973    -247.037    -335.443
  O     -160.272    -249.133    -334.796
  H     -159.629    -246.679    -334.815
  H     -159.000    -250.461    -338.410
  H     -160.270    -250.424    -337.211
  H     -158.704    -251.085    -336.805

 6  7  8  9  10  11  12  13  14  15  26  29  33  34 0
 6-311+G(2d,p)
 ****
 36  38  39  40  41 0
 6-311+G(2d,p)
 ****
 1  2  3  4  5  16  17  18  19  20  21  22  23  24  25 0
 3-21G
 ****
 27  28  30  31  32  35  37  42  43  44  45  46  47 0
 3-21G
 ****
 48  49 0
 3-21G
 ****


