%nproc=1
%NoSave
%Mem=1900MB
#P OB98/GEN NMR

erre ene a

0 1
  C       36.179     194.751    -375.854
  O       37.290     193.890    -376.041
  P       37.135     192.294    -375.914
  C       38.448     191.922    -378.107
  O       38.393     191.691    -376.699
  C       39.845     191.570    -378.640
  O       40.842     192.344    -377.934
  C       40.248     190.107    -378.445
  O       39.596     189.277    -379.396
  C       41.764     190.206    -378.570
  O       42.145     190.282    -379.961
  C       42.055     191.558    -377.880
  N       42.519     191.390    -376.499
  C       42.860     192.567    -375.822
  O       42.767     193.671    -376.357
  N       43.267     192.465    -374.508
  C       43.359     191.291    -373.937
  N       43.699     191.261    -372.627
  C       43.046     190.041    -374.647
  C       42.638     190.152    -375.900
  O       35.802     191.753    -376.346
  O       37.491     191.980    -374.390
  H       42.067     189.384    -380.324
  H       36.712     192.024    -373.774
  H       43.142     189.082    -374.130
  H       42.369     189.280    -376.476
  H       42.807     192.122    -378.451
  H       42.289     189.363    -378.124
  H       39.980     189.773    -377.435
  H       39.888     191.844    -379.701
  H       43.735     192.155    -372.135
  H       38.258     192.978    -378.302
  H       43.515     190.455    -372.037
  H       37.684     191.322    -378.610
  P       39.711     187.688    -379.200
  C       37.469     187.230    -380.439
  O       38.872     187.040    -380.413
  O       38.815     187.406    -377.899
  O       41.113     187.183    -379.045
  H       39.387     187.293    -377.115
  H       37.095     186.945    -381.427
  H       37.225     188.281    -380.258
  H       36.990     186.605    -379.677
  H       36.490     195.767    -375.980
  H       35.787     194.618    -374.867
  H       35.422     194.518    -376.573

 3  4  5  6  7  8  9  10  11  12  13  23  27  28  29  30  32 0
 6-311+G(2d,p)
 ****
 34  35 0
 6-311+G(2d,p)
 ****
 1  2  14  15  16  17  18  19  20  21  22  24  25  26 0
 3-21G
 ****
 31  33  36  37  38  39  40  41  42  43  44  45  46 0
 3-21G
 ****


