%nproc=1
%NoSave
%Mem=1900MB
#P OB98/GEN NMR

erre ene a

0 1
  C      -59.761    -325.627    -543.719
  O      -60.071    -325.634    -545.092
  H      -60.115    -326.566    -543.278
  H      -60.272    -324.798    -543.216
  H      -58.686    -325.552    -543.563
  P      -59.704    -324.354    -545.992
  C      -62.109    -323.457    -545.850
  O      -60.743    -323.204    -545.539
  C      -62.823    -322.167    -546.257
  O      -63.009    -321.320    -545.085
  C      -62.058    -321.327    -547.297
  O      -62.957    -320.908    -548.335
  C      -61.591    -320.113    -546.518
  O      -61.357    -318.967    -547.339
  C      -62.735    -319.970    -545.492
  N      -62.360    -319.111    -544.379
  C      -62.880    -317.808    -544.402
  O      -63.605    -317.448    -545.337
  N      -62.519    -316.931    -543.416
  C      -61.672    -317.306    -542.502
  N      -61.341    -316.381    -541.565
  C      -61.073    -318.669    -542.449
  C      -61.479    -319.509    -543.406
  O      -59.656    -324.611    -547.464
  O      -58.313    -323.823    -545.398
  H      -60.662    -319.190    -547.997
  H      -57.858    -323.287    -546.090
  H      -60.381    -318.917    -541.673
  H      -61.087    -320.521    -543.447
  H      -63.639    -319.569    -545.965
  H      -60.655    -320.353    -545.994
  H      -61.218    -321.859    -547.745
  H      -63.833    -322.414    -546.619
  H      -61.751    -315.461    -541.641
  H      -62.589    -323.908    -544.986
  H      -60.668    -316.551    -540.818
  H      -62.146    -324.152    -546.697
  P      -62.772    -321.628    -549.768
  C      -61.870    -319.541    -551.042
  O      -61.605    -320.856    -550.559
  O      -64.105    -321.231    -550.558
  O      -62.600    -323.113    -549.668
  H      -64.669    -322.019    -550.666
  H      -61.003    -319.163    -551.543
  H      -62.114    -318.901    -550.220
  H      -62.692    -319.571    -551.726

 6  7  8  9  10  11  12  13  14  15  16  26  30  31  32  33  35 0
 6-311+G(2d,p)
 ****
 37  38 0
 6-311+G(2d,p)
 ****
 1  2  3  4  5  17  18  19  20  21  22  23  24  25 0
 3-21G
 ****
 27  28  29  34  36  39  40  41  42  43  44  45  46 0
 3-21G
 ****


