%nproc=1
%NoSave
%Mem=1900MB
#P OB98/GEN NMR

erre ene a

0 1
  C     -232.118     573.148     -55.006
  O     -231.819     574.303     -54.245
  H     -232.265     573.442     -56.050
  H     -233.038     572.672     -54.650
  H     -231.292     572.435     -54.954
  P     -231.714     574.155     -52.652
  C     -229.132     574.037     -52.536
  O     -230.363     573.338     -52.385
  C     -227.971     573.154     -52.088
  O     -227.903     573.111     -50.649
  C     -228.107     571.708     -52.541
  O     -227.796     571.577     -53.914
  C     -227.156     571.017     -51.585
  O     -225.795     571.159     -52.009
  C     -227.412     571.801     -50.277
  N     -228.348     571.124     -49.385
  C     -227.816     570.658     -48.177
  O     -226.630     570.833     -47.910
  N     -228.647     569.989     -47.315
  C     -229.895     569.812     -47.617
  N     -230.663     569.139     -46.719
  C     -230.497     570.296     -48.874
  C     -229.672     570.934     -49.705
  O     -232.916     573.611     -51.945
  O     -231.347     575.634     -52.162
  H     -225.725     570.665     -52.850
  H     -232.157     576.146     -51.983
  H     -231.544     570.133     -49.082
  H     -230.036     571.325     -50.650
  H     -226.472     571.958     -49.731
  H     -227.371     569.953     -51.506
  H     -229.120     571.341     -52.339
  H     -227.038     573.597     -52.454
  H     -230.204     568.815     -45.874
  H     -229.191     574.932     -51.909
  H     -231.660     569.021     -46.807
  H     -228.990     574.350     -53.576
  P     -227.908     570.156     -54.643
  C     -230.278     570.881     -55.355
  O     -229.481     569.859     -54.761
  O     -227.093     569.063     -54.039
  O     -227.496     570.492     -56.156
  H     -226.521     570.639     -56.239
  H     -231.301     570.568     -55.377
  H     -229.939     571.063     -56.353
  H     -230.192     571.779     -54.780

 6  7  8  9  10  11  12  13  14  15  16  26  30  31  32  33  35 0
 6-311+G(2d,p)
 ****
 37  38 0
 6-311+G(2d,p)
 ****
 1  2  3  4  5  17  18  19  20  21  22  23  24  25 0
 3-21G
 ****
 27  28  29  34  36  39  40  41  42  43  44  45  46 0
 3-21G
 ****


