%nproc=1
%NoSave
%Mem=1900MB
#P OB98/GEN NMR

erre ene a

0 1
  C      187.664     -85.510    -575.234
  O      186.354     -85.762    -574.753
  P      185.518     -84.526    -574.168
  C      184.121     -86.179    -572.717
  O      184.896     -84.989    -572.765
  C      183.844     -86.559    -571.261
  O      185.068     -86.971    -570.604
  C      183.301     -85.405    -570.418
  O      181.917     -85.199    -570.659
  C      183.614     -85.878    -569.008
  O      182.602     -86.771    -568.527
  C      184.953     -86.616    -569.208
  N      186.099     -85.845    -568.746
  C      186.674     -86.263    -567.544
  O      186.239     -87.208    -566.888
  N      187.742     -85.531    -567.107
  C      188.244     -84.406    -567.698
  O      189.169     -83.749    -567.225
  C      187.579     -83.988    -568.945
  C      186.546     -84.717    -569.407
  O      184.247     -84.426    -575.138
  O      186.279     -83.241    -574.108
  H      181.750     -86.298    -568.582
  H      183.998     -83.489    -575.259
  H      188.188     -85.827    -566.251
  H      187.954     -83.102    -569.448
  H      186.037     -84.418    -570.311
  H      184.940     -87.569    -568.655
  H      183.670     -85.045    -568.298
  H      183.875     -84.489    -570.630
  H      183.150     -87.407    -571.243
  H      184.670     -86.990    -573.213
  H      183.182     -86.025    -573.254
  P      181.441     -83.690    -570.923
  C      178.977     -84.554    -570.865
  O      179.932     -83.629    -570.388
  O      181.318     -83.695    -572.522
  O      182.387     -82.676    -570.373
  H      181.050     -84.564    -572.868
  H      179.417     -85.537    -571.047
  H      178.534     -84.174    -571.788
  H      178.187     -84.656    -570.113
  H      188.095     -86.422    -575.590
  H      188.266     -85.117    -574.441
  H      187.620     -84.800    -576.034

 3  4  5  6  7  8  9  10  11  12  13  23  28  29  30  31  32 0
 6-311+G(2d,p)
 ****
 33  34 0
 6-311+G(2d,p)
 ****
 1  2  14  15  16  17  18  19  20  21  22  24  25  26 0
 3-21G
 ****
 27  35  36  37  38  39  40  41  42  43  44  45 0
 3-21G
 ****


