%nproc=1
%NoSave
%Mem=1900MB
#P OB98/GEN NMR

erre ene a

0 1
  C      122.475     219.010    -125.125
  O      122.580     220.149    -124.261
  P      122.261     220.084    -122.691
  C      124.063     221.822    -122.066
  O      123.571     220.499    -121.867
  C      124.782     222.351    -120.823
  O      123.854     222.531    -119.737
  C      125.871     221.437    -120.277
  O      127.041     221.503    -121.071
  C      126.028     221.981    -118.860
  O      126.879     223.139    -118.842
  C      124.577     222.361    -118.503
  N      123.938     221.378    -117.639
  C      124.250     221.444    -116.278
  O      125.072     222.264    -115.865
  N      123.641     220.561    -115.420
  C      122.850     219.647    -115.890
  N      122.270     218.806    -114.993
  C      122.566     219.485    -117.328
  C      123.136     220.378    -118.135
  O      121.648     218.794    -122.249
  O      121.252     221.299    -122.421
  H      127.039     223.350    -117.902
  H      120.656     221.061    -121.687
  H      121.924     218.694    -117.681
  H      122.973     220.337    -119.206
  H      124.551     223.336    -118.001
  H      126.466     221.249    -118.176
  H      125.501     220.406    -120.230
  H      125.201     223.336    -121.072
  H      122.480     218.947    -114.014
  H      123.211     222.473    -122.295
  H      121.638     218.063    -115.253
  H      124.742     221.819    -122.925
  P      127.708     220.154    -121.617
  C      126.856     220.753    -123.963
  O      126.949     219.751    -122.969
  O      127.857     219.055    -120.619
  O      129.144     220.633    -122.153
  H      129.782     219.906    -122.039
  H      126.702     220.272    -124.932
  H      127.770     221.354    -124.005
  H      126.003     221.401    -123.746
  H      122.736     219.294    -126.123
  H      121.470     218.642    -125.110
  H      123.141     218.243    -124.787

 3  4  5  6  7  8  9  10  11  12  13  23  27  28  29  30  32 0
 6-311+G(2d,p)
 ****
 34  35 0
 6-311+G(2d,p)
 ****
 1  2  14  15  16  17  18  19  20  21  22  24  25  26 0
 3-21G
 ****
 31  33  36  37  38  39  40  41  42  43  44  45  46 0
 3-21G
 ****


