%nproc=1
%NoSave
%Mem=1900MB
#P OB98/GEN NMR

erre ene a

0 1
  C      -91.014    -178.447     112.813
  O      -90.717    -177.523     111.788
  H      -90.333    -179.299     112.721
  H      -92.039    -178.810     112.711
  H      -90.875    -177.994     113.797
  P      -91.484    -176.115     111.771
  C      -93.956    -175.428     112.001
  O      -93.043    -176.438     111.590
  C      -95.358    -176.017     112.134
  O      -95.342    -177.152     113.028
  C      -96.383    -175.048     112.713
  O      -96.777    -174.095     111.746
  C      -97.469    -176.019     113.149
  O      -98.269    -176.434     112.031
  C      -96.629    -177.203     113.683
  N      -96.482    -177.184     115.139
  C      -97.604    -177.550     115.875
  O      -98.672    -177.872     115.360
  N      -97.470    -177.488     117.237
  C      -96.378    -177.019     117.910
  O      -96.381    -176.777     119.113
  C      -95.199    -176.720     117.084
  C      -95.308    -176.799     115.757
  O      -90.937    -175.091     110.834
  O      -91.397    -175.622     113.293
  H      -90.690    -174.954     113.375
  H      -97.660    -176.859     111.397
  H      -98.292    -177.706     117.780
  H      -94.292    -176.406     117.586
  H      -94.460    -176.553     115.127
  H      -97.091    -178.159     113.401
  H      -98.147    -175.582     113.883
  H      -95.973    -174.555     113.602
  H      -95.674    -176.372     111.144
  H      -93.965    -174.637     111.243
  H      -93.620    -175.006     112.953
  P      -97.945    -173.045     112.048
  C     -100.425    -173.095     112.694
  O      -99.305    -173.861     112.273
  O      -98.052    -171.921     111.071
  O      -97.610    -172.495     113.516
  H      -97.582    -171.518     113.491
  H     -101.272    -173.738     112.812
  H     -100.643    -172.349     111.959
  H     -100.203    -172.622     113.628

 6  7  8  9  10  11  12  13  14  15  16  27  31  32  33  34  35 0
 6-311+G(2d,p)
 ****
 36  37 0
 6-311+G(2d,p)
 ****
 1  2  3  4  5  17  18  19  20  21  22  23  24  25 0
 3-21G
 ****
 26  28  29  30  38  39  40  41  42  43  44  45 0
 3-21G
 ****


