%nproc=1
%NoSave
%Mem=1900MB
#P OB98/GEN NMR

erre ene a

0 1
  C      254.979    -301.646    -414.990
  O      254.000    -301.323    -414.020
  P      252.810    -302.381    -413.784
  C      252.735    -302.914    -411.242
  O      253.238    -303.269    -412.524
  C      253.323    -303.839    -410.172
  O      254.755    -303.697    -410.109
  C      252.819    -303.556    -408.761
  O      251.553    -304.128    -408.513
  C      253.894    -304.246    -407.931
  O      253.637    -305.661    -407.877
  C      255.163    -303.963    -408.746
  N      258.910    -302.531    -405.644
  C      258.543    -303.795    -406.073
  N      259.245    -304.832    -405.546
  N      257.591    -304.026    -406.929
  C      256.970    -302.902    -407.362
  C      257.241    -301.593    -407.011
  C      258.294    -301.353    -406.050
  O      258.624    -300.264    -405.594
  N      256.405    -300.722    -407.659
  C      255.637    -301.491    -408.408
  N      255.908    -302.829    -408.223
  O      252.968    -303.394    -415.018
  O      251.447    -301.778    -413.721
  H      253.522    -305.962    -408.803
  H      252.146    -303.910    -415.133
  H      259.650    -302.405    -404.977
  H      254.860    -301.135    -409.075
  H      255.841    -304.822    -408.765
  H      253.923    -303.889    -406.898
  H      259.950    -304.718    -404.836
  H      252.831    -302.480    -408.546
  H      258.960    -305.771    -405.796
  H      253.094    -304.876    -410.459
  H      251.644    -303.003    -411.243
  H      253.002    -301.876    -411.027
  P      250.351    -303.114    -408.191
  C      248.626    -303.288    -410.130
  O      249.789    -302.652    -409.621
  O      251.106    -301.815    -407.644
  O      249.340    -303.634    -407.219
  H      250.522    -301.303    -407.043
  H      248.234    -302.687    -410.959
  H      247.851    -303.372    -409.364
  H      248.877    -304.286    -410.508
  H      255.703    -300.860    -415.041
  H      254.510    -301.762    -415.945
  H      255.463    -302.560    -414.717

 3  4  5  6  7  8  9  10  11  12  23  26  30  31 0
 6-311+G(2d,p)
 ****
 33  35  36  37  38 0
 6-311+G(2d,p)
 ****
 1  2  13  14  15  16  17  18  19  20  21  22  24  25 0
 3-21G
 ****
 27  28  29  32  34  39  40  41  42  43  44  45  46  47  48  49 0
 3-21G
 ****


