%nproc=1
%NoSave
%Mem=1900MB
#P OB98/GEN NMR

erre ene a

0 1
  C      240.417    -118.388    -252.980
  O      241.294    -118.968    -253.956
  P      242.773    -119.494    -253.610
  C      244.110    -117.302    -253.858
  O      243.627    -118.298    -252.966
  C      244.595    -116.055    -253.111
  O      245.395    -115.216    -254.001
  C      243.470    -115.176    -252.539
  O      243.925    -114.697    -251.271
  C      243.396    -114.053    -253.566
  O      242.739    -112.891    -253.095
  C      244.889    -113.870    -253.860
  N      245.204    -113.071    -255.040
  C      245.079    -111.679    -254.937
  O      244.664    -111.147    -253.908
  N      245.414    -110.909    -256.026
  C      245.827    -111.471    -257.120
  N      246.150    -110.650    -258.154
  C      245.953    -112.930    -257.279
  C      245.632    -113.660    -256.210
  O      243.456    -120.154    -254.765
  O      242.587    -120.525    -252.402
  H      243.228    -121.254    -252.499
  H      242.920    -112.166    -253.721
  H      246.310    -113.358    -258.203
  H      245.727    -114.743    -256.235
  H      245.381    -113.434    -252.981
  H      242.848    -114.413    -254.443
  H      242.526    -115.711    -252.397
  H      245.268    -116.381    -252.307
  H      246.061    -109.652    -258.005
  H      243.297    -117.013    -254.530
  H      246.490    -110.978    -259.047
  H      244.922    -117.725    -254.463
  P      243.383    -115.380    -249.924
  C      243.069    -113.185    -248.554
  O      242.465    -114.303    -249.171
  O      244.701    -115.385    -249.003
  O      242.845    -116.768    -250.056
  H      244.630    -116.102    -248.350
  H      242.486    -112.291    -248.799
  H      244.099    -113.033    -248.888
  H      243.060    -113.330    -247.470
  H      239.493    -118.116    -253.447
  H      240.875    -117.516    -252.562
  H      240.228    -119.099    -252.203

 3  4  5  6  7  8  9  10  11  12  13  24  27  28  29  30  32 0
 6-311+G(2d,p)
 ****
 34  35 0
 6-311+G(2d,p)
 ****
 1  2  14  15  16  17  18  19  20  21  22  23  25  26 0
 3-21G
 ****
 31  33  36  37  38  39  40  41  42  43  44  45  46 0
 3-21G
 ****


