%nproc=1
%NoSave
%Mem=1900MB
#P OB98/GEN NMR

erre ene a

0 1
  C      471.774    -895.300     421.212
  O      472.329    -894.270     422.014
  H      470.946    -894.870     420.654
  H      471.402    -896.110     421.836
  H      472.515    -895.660     420.504
  P      473.551    -894.640     422.998
  C      472.285    -895.210     425.175
  O      472.986    -895.710     424.046
  C      471.385    -896.280     425.772
  O      472.248    -897.380     426.219
  C      470.577    -895.790     427.004
  O      469.179    -896.050     426.885
  C      471.335    -896.400     428.187
  O      470.531    -896.590     429.341
  C      471.925    -897.680     427.593
  N      473.113    -898.150     428.289
  C      472.925    -898.970     429.401
  O      471.834    -899.360     429.823
  N      474.070    -899.390     430.038
  C      475.356    -899.050     429.699
  O      476.334    -899.450     430.321
  C      475.486    -898.160     428.545
  C      474.389    -897.760     427.911
  O      474.257    -893.480     423.607
  O      474.525    -895.520     422.077
  H      469.826    -897.200     429.087
  H      475.306    -894.980     421.833
  H      473.932    -900.000     430.831
  H      476.483    -897.860     428.254
  H      474.464    -897.090     427.044
  H      471.203    -898.490     427.601
  H      472.145    -895.710     428.470
  H      470.629    -894.700     427.068
  H      470.723    -896.680     424.999
  H      471.668    -894.350     424.835
  H      472.994    -894.850     425.926
  P      468.073    -894.940     426.539
  C      467.236    -894.400     428.977
  O      467.920    -893.970     427.809
  O      466.811    -895.470     425.938
  O      468.798    -894.000     425.448
  H      468.088    -893.690     424.861
  H      467.243    -893.615     429.704
  H      467.725    -895.263     429.379
  H      466.225    -894.646     428.728

 6  7  8  9  10  11  12  13  14  15  16  26  31  32  33  34  35 0
 6-311+G(2d,p)
 ****
 36  37 0
 6-311+G(2d,p)
 ****
 1  2  3  4  5  17  18  19  20  21  22  23  24  25 0
 3-21G
 ****
 27  28  29  30  38  39  40  41  42  43  44  45 0
 3-21G
 ****


