%nproc=1
%NoSave
%Mem=1900MB
#P OB98/GEN NMR

erre ene a

0 1
  C      260.330     288.592     421.063
  O      259.363     287.700     421.581
  H      261.285     288.066     420.983
  H      260.456     289.446     421.734
  H      260.042     288.943     420.066
  P      257.833     288.176     421.653
  C      258.139     288.368     424.210
  O      257.662     288.991     423.022
  C      258.940     289.375     425.036
  O      260.001     289.948     424.234
  C      258.121     290.552     425.542
  O      257.316     290.183     426.643
  C      259.220     291.553     425.861
  O      259.811     291.276     427.139
  C      260.226     291.293     424.717
  N      260.118     292.271     423.631
  C      260.467     293.581     423.940
  O      260.814     293.938     425.068
  N      260.365     294.483     422.916
  C      259.860     294.229     421.676
  O      259.707     295.094     420.815
  C      259.485     292.833     421.408
  C      259.631     291.933     422.384
  O      256.814     287.110     421.418
  O      257.744     289.325     420.538
  H      260.013     290.320     427.152
  H      257.280     288.979     419.752
  H      260.598     295.440     423.125
  H      259.093     292.589     420.431
  H      259.355     290.895     422.208
  H      261.254     291.320     425.101
  H      258.849     292.577     425.898
  H      257.501     290.956     424.728
  H      259.407     288.838     425.874
  H      258.785     287.527     423.931
  H      257.284     287.990     424.783
  P      255.726     290.098     426.476
  C      255.474     292.312     427.760
  O      255.141     291.587     426.573
  O      255.049     289.095     427.347
  O      255.521     289.736     424.930
  H      255.056     288.879     424.856
  H      255.034     293.286     427.718
  H      256.537     292.404     427.835
  H      255.100     291.788     428.615

 6  7  8  9  10  11  12  13  14  15  16  26  31  32  33  34  35 0
 6-311+G(2d,p)
 ****
 36  37 0
 6-311+G(2d,p)
 ****
 1  2  3  4  5  17  18  19  20  21  22  23  24  25 0
 3-21G
 ****
 27  28  29  30  38  39  40  41  42  43  44  45 0
 3-21G
 ****


