%nproc=1
%NoSave
%Mem=1900MB
#P OB98/GEN NMR

erre ene a

0 1
  C     -186.621    -873.108    -163.170
  O     -185.489    -872.381    -162.735
  H     -186.285    -874.059    -163.593
  H     -187.151    -872.548    -163.949
  H     -187.288    -873.304    -162.331
  P     -185.755    -870.914    -162.138
  C     -187.497    -869.111    -162.829
  O     -186.569    -870.101    -163.255
  C     -187.344    -867.856    -163.691
  O     -186.090    -867.205    -163.384
  C     -187.310    -868.134    -165.186
  O     -188.603    -868.365    -165.723
  C     -186.673    -866.849    -165.704
  O     -187.656    -865.812    -165.868
  C     -185.680    -866.494    -164.576
  N     -184.293    -866.799    -164.945
  C     -183.599    -865.764    -165.579
  O     -184.095    -864.662    -165.818
  N     -182.324    -866.059    -165.957
  C     -181.691    -867.272    -165.817
  O     -180.566    -867.487    -166.246
  C     -182.474    -868.308    -165.131
  C     -183.725    -868.043    -164.743
  O     -184.298    -870.240    -162.163
  O     -186.368    -870.888    -160.777
  H     -183.920    -870.241    -161.264
  H     -188.279    -866.133    -166.549
  H     -181.802    -865.325    -166.429
  H     -182.002    -869.280    -164.995
  H     -184.324    -868.801    -164.257
  H     -185.731    -865.424    -164.338
  H     -186.200    -866.988    -166.675
  H     -186.628    -868.969    -165.402
  H     -188.161    -867.163    -163.443
  H     -187.300    -868.850    -161.785
  H     -188.510    -869.518    -162.912
  P     -188.829    -869.666    -166.640
  C     -188.407    -869.980    -169.216
  O     -187.975    -869.433    -167.980
  O     -190.348    -869.450    -167.103
  O     -188.561    -870.957    -165.934
  H     -190.578    -868.520    -167.240
  H     -187.711    -869.718    -169.985
  H     -189.373    -869.590    -169.461
  H     -188.463    -871.045    -169.134

 6  7  8  9  10  11  12  13  14  15  16  27  31  32  33  34  35 0
 6-311+G(2d,p)
 ****
 36  37 0
 6-311+G(2d,p)
 ****
 1  2  3  4  5  17  18  19  20  21  22  23  24  25 0
 3-21G
 ****
 26  28  29  30  38  39  40  41  42  43  44  45 0
 3-21G
 ****


