%nproc=1
%NoSave
%Mem=1900MB
#P OB98/GEN NMR

erre ene a

0 1
  C      219.346     324.183     202.439
  O      219.366     324.998     203.621
  P      220.709     325.635     204.231
  C      222.664     324.858     205.750
  O      221.395     324.539     205.191
  C      223.001     323.919     206.913
  O      222.168     324.227     208.062
  C      222.742     322.441     206.653
  O      223.711     321.871     205.784
  C      222.768     321.877     208.076
  O      224.114     321.605     208.510
  C      222.176     323.040     208.898
  N      220.843     322.754     209.409
  C      220.755     321.828     210.455
  O      221.763     321.230     210.846
  N      219.519     321.586     211.011
  C      218.459     322.135     210.506
  N      217.271     321.874     211.119
  C      218.495     323.013     209.322
  C      219.709     323.280     208.831
  O      220.506     326.967     204.888
  O      221.725     325.748     202.996
  H      222.359     326.469     203.163
  H      224.479     320.951     207.882
  H      217.580     323.421     208.904
  H      219.822     323.930     207.965
  H      222.838     323.284     209.739
  H      222.206     320.942     208.157
  H      221.738     322.318     206.227
  H      224.053     324.083     207.192
  H      217.285     321.274     211.940
  H      222.630     325.890     206.123
  H      216.395     322.269     210.817
  H      223.429     324.801     204.963
  P      223.199     320.722     204.780
  C      222.096     318.382     205.020
  O      222.547     319.558     205.673
  O      224.563     320.071     204.232
  O      222.339     321.217     203.662
  H      224.457     319.857     203.283
  H      222.151     317.544     205.727
  H      222.707     318.139     204.145
  H      221.058     318.519     204.711
  H      218.341     323.878     202.233
  H      219.957     323.318     202.592
  H      219.725     324.746     201.611

 3  4  5  6  7  8  9  10  11  12  13  24  27  28  29  30  32 0
 6-311+G(2d,p)
 ****
 34  35 0
 6-311+G(2d,p)
 ****
 1  2  14  15  16  17  18  19  20  21  22  23  25  26 0
 3-21G
 ****
 31  33  36  37  38  39  40  41  42  43  44  45  46 0
 3-21G
 ****


