%nproc=1
%NoSave
%Mem=1900MB
#P OB98/GEN NMR

erre ene a

0 1
  C      868.327     115.195    -172.374
  O      868.235     115.638    -171.027
  P      868.475     114.628    -169.797
  C      865.979     114.026    -169.611
  O      867.279     113.560    -169.908
  C      864.922     113.061    -170.163
  O      865.161     112.897    -171.588
  C      864.958     111.639    -169.590
  O      864.262     111.489    -168.364
  C      864.231     110.877    -170.698
  O      862.812     111.080    -170.566
  C      864.762     111.552    -171.965
  N      866.209     108.065    -175.418
  C      864.992     108.578    -175.100
  N      864.697     109.478    -174.143
  C      865.803     109.916    -173.531
  C      867.095     109.501    -173.747
  C      867.295     108.515    -174.754
  N      868.541     108.019    -175.091
  N      867.981     110.139    -172.897
  C      867.219     110.959    -172.190
  N      865.894     110.860    -172.539
  O      868.624     115.290    -168.477
  O      869.769     113.783    -170.233
  H      862.381     110.565    -171.264
  H      870.144     113.338    -169.455
  H      864.143     108.186    -175.664
  H      867.578     111.621    -171.431
  H      863.991     111.656    -172.733
  H      864.404     109.783    -170.636
  H      865.992     111.263    -169.512
  H      863.933     113.511    -170.036
  H      865.841     115.012    -170.085
  H      868.575     107.424    -175.914
  H      869.351     108.472    -174.720
  H      865.866     114.147    -168.537
  P      864.646     110.220    -167.446
  C      862.544     109.028    -168.497
  O      863.913     108.959    -168.131
  O      864.365     110.392    -165.999
  O      866.187     109.984    -167.793
  H      866.374     109.695    -168.709
  H      862.288     108.139    -169.071
  H      862.350     109.919    -169.087
  H      861.926     109.038    -167.577
  H      868.134     116.015    -173.033
  H      867.606     114.423    -172.546
  H      869.310     114.813    -172.558

 3  4  5  6  7  8  9  10  11  12  22  25  29  30  31  32 0
 6-311+G(2d,p)
 ****
 33  36  37 0
 6-311+G(2d,p)
 ****
 1  2  13  14  15  16  17  18  19  20  21  23  24  26 0
 3-21G
 ****
 27  28  34  35  38  39  40  41  42  43  44  45  46  47  48 0
 3-21G
 ****


