%nproc=1
%NoSave
%Mem=1900MB
#P OB98/GEN NMR

erre ene a

0 1
  C     -477.871     285.592     333.079
  O     -477.044     284.487     332.715
  P     -477.694     283.270     331.897
  C     -476.766     281.722     333.745
  O     -476.959     281.916     332.346
  C     -475.732     280.626     334.003
  O     -474.377     281.139     333.947
  C     -475.863     279.989     335.376
  O     -476.978     279.119     335.436
  C     -474.509     279.322     335.529
  O     -474.484     278.047     334.861
  C     -473.567     280.314     334.809
  N     -472.771     281.123     335.724
  C     -471.889     280.423     336.545
  O     -471.837     279.190     336.505
  N     -471.090     281.139     337.415
  C     -471.180     282.424     337.456
  N     -470.372     283.087     338.331
  C     -472.114     283.205     336.614
  C     -472.880     282.495     335.786
  O     -477.820     283.468     330.430
  O     -479.139     283.114     332.588
  H     -473.544     277.811     334.767
  H     -479.772     282.775     331.926
  H     -472.144     284.286     336.678
  H     -473.596     282.980     335.126
  H     -472.878     279.775     334.147
  H     -474.257     279.132     336.581
  H     -475.975     280.781     336.140
  H     -475.846     279.860     333.233
  H     -469.748     282.537     338.901
  H     -477.719     281.457     334.214
  H     -470.330     284.091     338.393
  H     -476.452     282.675     334.188
  P     -478.014     279.311     336.647
  C     -479.020     276.916     336.633
  O     -479.235     278.298     336.410
  O     -478.667     280.747     336.341
  O     -477.405     279.268     338.007
  H     -478.870     281.197     337.185
  H     -479.987     276.412     336.740
  H     -478.436     276.751     337.547
  H     -478.494     276.481     335.776
  H     -477.289     286.312     333.616
  H     -478.673     285.248     333.699
  H     -478.271     286.044     332.196

 3  4  5  6  7  8  9  10  11  12  13  23  27  28  29  30  32 0
 6-311+G(2d,p)
 ****
 34  35 0
 6-311+G(2d,p)
 ****
 1  2  14  15  16  17  18  19  20  21  22  24  25  26 0
 3-21G
 ****
 31  33  36  37  38  39  40  41  42  43  44  45  46 0
 3-21G
 ****


