%nproc=1
%NoSave
%Mem=1900MB
#P OB98/GEN NMR

erre ene a

0 1
  C     -370.157    -652.058     172.173
  O     -369.691    -652.805     171.050
  P     -370.395    -652.844     169.618
  C     -369.873    -655.349     169.035
  O     -369.677    -653.978     168.734
  C     -368.883    -656.285     168.318
  O     -368.871    -655.982     166.898
  C     -367.450    -656.007     168.825
  O     -366.993    -656.626     170.020
  C     -366.569    -656.262     167.613
  O     -366.051    -657.605     167.583
  C     -367.503    -656.033     166.433
  N     -364.699    -653.809     162.754
  C     -364.634    -655.105     163.248
  N     -363.661    -655.896     162.736
  N     -365.427    -655.555     164.181
  C     -366.302    -654.636     164.666
  C     -366.448    -653.320     164.275
  C     -365.601    -652.842     163.214
  O     -365.631    -651.712     162.725
  N     -367.417    -652.690     164.999
  C     -367.832    -653.615     165.860
  N     -367.178    -654.821     165.689
  O     -370.618    -651.513     168.976
  O     -371.852    -653.481     169.947
  H     -365.351    -657.667     168.255
  H     -372.473    -653.072     169.313
  H     -364.075    -653.511     162.033
  H     -368.589    -653.457     166.618
  H     -367.459    -656.864     165.705
  H     -365.693    -655.609     167.623
  H     -362.949    -655.564     162.113
  H     -367.368    -654.927     169.020
  H     -363.465    -656.759     163.243
  H     -369.177    -657.335     168.413
  H     -370.911    -655.605     168.735
  H     -369.828    -655.516     170.110
  P     -366.528    -655.877     171.352
  C     -364.478    -657.068     172.326
  O     -365.881    -656.970     172.326
  O     -367.918    -655.499     172.092
  O     -365.699    -654.644     171.144
  H     -367.757    -654.832     172.777
  H     -364.193    -658.033     172.778
  H     -364.054    -656.263     172.906
  H     -364.085    -657.035     171.303
  H     -369.498    -652.212     173.002
  H     -371.142    -652.384     172.435
  H     -370.180    -651.018     171.924

 3  4  5  6  7  8  9  10  11  12  23  26  30  31 0
 6-311+G(2d,p)
 ****
 33  35  36  37  38 0
 6-311+G(2d,p)
 ****
 1  2  13  14  15  16  17  18  19  20  21  22  24  25 0
 3-21G
 ****
 27  28  29  32  34  39  40  41  42  43  44  45  46  47  48  49 0
 3-21G
 ****


