%nproc=1
%NoSave
%Mem=1900MB
#P OB98/GEN NMR

erre ene a

0 1
  C      453.886    -483.964     231.987
  O      453.413    -482.651     232.218
  H      454.643    -483.931     231.198
  H      453.060    -484.597     231.650
  H      454.332    -484.379     232.891
  P      452.405    -482.430     233.446
  C      451.836    -480.359     234.913
  O      452.255    -480.841     233.645
  C      452.127    -478.860     235.033
  O      453.569    -478.670     235.150
  C      451.638    -478.041     233.839
  O      451.131    -476.793     234.318
  C      452.906    -477.800     233.026
  O      452.821    -476.628     232.212
  C      453.970    -477.744     234.131
  N      455.297    -478.063     233.608
  C      456.148    -476.973     233.343
  O      455.761    -475.821     233.554
  N      457.386    -477.219     232.812
  C      457.718    -478.423     232.473
  N      458.946    -478.601     231.924
  C      456.825    -479.596     232.668
  C      455.647    -479.341     233.241
  O      453.268    -482.872     234.719
  O      451.109    -483.166     233.354
  H      453.690    -476.487     231.786
  H      452.706    -483.259     235.415
  H      457.136    -480.580     232.348
  H      454.932    -480.133     233.415
  H      453.995    -476.737     234.585
  H      453.085    -478.659     232.369
  H      450.869    -478.547     233.251
  H      451.678    -478.499     235.974
  H      459.526    -477.776     231.787
  H      452.391    -480.896     235.693
  H      459.297    -479.491     231.577
  H      450.763    -480.553     235.038
  P      449.598    -476.764     234.763
  C      448.230    -475.664     236.688
  O      449.411    -475.644     235.902
  O      449.414    -478.141     235.557
  O      448.632    -476.649     233.609
  H      448.881    -478.766     235.023
  H      448.258    -474.861     237.394
  H      448.165    -476.596     237.210
  H      447.377    -475.550     236.053

 6  7  8  9  10  11  12  13  14  15  16  26  30  31  32  33  35 0
 6-311+G(2d,p)
 ****
 37  38 0
 6-311+G(2d,p)
 ****
 1  2  3  4  5  17  18  19  20  21  22  23  24  25 0
 3-21G
 ****
 27  28  29  34  36  39  40  41  42  43  44  45  46 0
 3-21G
 ****


