%nproc=1
%NoSave
%Mem=1900MB
#P OB98/GEN NMR

erre ene a

0 1
  C      166.416      82.877      -5.823
  O      165.332      83.589      -6.378
  P      165.309      85.189      -6.397
  C      163.927      86.886      -5.036
  O      164.647      85.658      -5.008
  C      162.743      86.830      -4.064
  O      161.761      85.877      -4.578
  C      163.153      86.370      -2.649
  O      162.730      87.241      -1.600
  C      162.603      84.954      -2.585
  O      162.423      84.467      -1.268
  C      161.350      85.067      -3.459
  N      160.836      83.764      -3.873
  C      160.332      82.934      -2.877
  O      160.283      83.230      -1.686
  N      159.928      81.692      -3.279
  C      160.081      81.165      -4.526
  O      159.787      80.008      -4.793
  C      160.657      82.074      -5.528
  C      160.983      83.319      -5.172
  O      164.694      85.806      -7.608
  O      166.847      85.576      -6.179
  H      161.662      84.938      -0.877
  H      167.239      85.249      -5.351
  H      159.560      81.080      -2.566
  H      160.800      81.680      -6.524
  H      161.408      84.012      -5.890
  H      160.551      85.604      -2.945
  H      163.329      84.292      -3.073
  H      164.243      86.342      -2.546
  H      162.284      87.821      -4.039
  H      163.550      87.050      -6.049
  H      164.599      87.717      -4.797
  P      163.524      87.487      -0.233
  C      163.394      86.284       2.069
  O      163.399      86.166       0.661
  O      163.196      88.760       0.473
  O      165.060      87.474      -0.687
  H      165.583      88.039      -0.088
  H      163.805      85.366       2.499
  H      162.364      86.401       2.416
  H      163.994      87.133       2.405
  H      166.235      81.826      -5.910
  H      166.521      83.136      -4.790
  H      167.314      83.129      -6.347

 3  4  5  6  7  8  9  10  11  12  13  23  28  29  30  31  32 0
 6-311+G(2d,p)
 ****
 33  34 0
 6-311+G(2d,p)
 ****
 1  2  14  15  16  17  18  19  20  21  22  24  25  26  27 0
 3-21G
 ****
 35  36  37  38  39  40  41  42  43  44  45 0
 3-21G
 ****


