%nproc=1
%NoSave
%Mem=1900MB
#P OB98/GEN NMR

erre ene a

0 1
  C      -68.347     -38.735     -89.164
  O      -69.062     -39.520     -90.095
  H      -68.907     -37.817     -88.973
  H      -67.373     -38.469     -89.581
  H      -68.216     -39.272     -88.220
  P      -68.587     -41.038     -90.289
  C      -70.881     -41.897     -91.134
  O      -69.512     -41.679     -91.437
  C      -71.756     -41.533     -92.334
  O      -71.860     -40.087     -92.411
  C      -71.206     -42.033     -93.675
  O      -72.299     -42.462     -94.492
  C      -70.571     -40.794     -94.281
  O      -70.506     -40.851     -95.704
  C      -71.481     -39.696     -93.744
  N      -71.045     -35.305     -96.178
  C      -71.895     -36.371     -96.403
  N      -72.754     -36.252     -97.439
  N      -71.901     -37.457     -95.678
  C      -71.014     -37.421     -94.654
  C      -70.117     -36.431     -94.329
  C      -70.100     -35.245     -95.159
  O      -69.356     -34.279     -95.023
  N      -69.361     -36.783     -93.239
  C      -69.801     -37.983     -92.907
  N      -70.807     -38.409     -93.732
  O      -69.099     -41.753     -88.952
  O      -67.119     -41.231     -90.482
  H      -70.179     -41.744     -95.949
  H      -68.335     -42.066     -88.432
  H      -71.073     -34.497     -96.776
  H      -69.424     -38.584     -92.092
  H      -72.393     -39.579     -94.341
  H      -69.549     -40.679     -93.898
  H      -72.836     -35.425     -98.009
  H      -70.491     -42.850     -93.568
  H      -73.412     -37.006     -97.601
  H      -72.768     -41.915     -92.157
  H      -71.159     -41.273     -90.278
  H      -71.031     -42.950     -90.871
  P      -72.603     -44.038     -94.533
  C      -74.962     -43.807     -95.576
  O      -73.646     -44.321     -95.721
  O      -73.467     -44.277     -93.207
  O      -71.377     -44.889     -94.546
  H      -72.933     -44.752     -92.543
  H      -75.544     -44.069     -96.435
  H      -74.921     -42.742     -95.484
  H      -75.413     -44.223     -94.699

 6  7  8  9  10  11  12  13  14  15  26  29  33  34 0
 6-311+G(2d,p)
 ****
 36  38  39  40  41 0
 6-311+G(2d,p)
 ****
 1  2  3  4  5  16  17  18  19  20  21  22  23  24  25 0
 3-21G
 ****
 27  28  30  31  32  35  37  42  43  44  45  46  47 0
 3-21G
 ****
 48  49 0
 3-21G
 ****


