%nproc=1
%NoSave
%Mem=1900MB
#P OB98/GEN NMR

erre ene a

0 1
  C      830.930    -302.489     404.932
  O      832.296    -302.369     404.568
  H      830.593    -301.519     405.325
  H      830.802    -303.239     405.722
  H      830.324    -302.746     404.062
  P      833.072    -303.695     404.106
  C      834.462    -302.278     402.447
  O      834.484    -303.187     403.537
  C      835.879    -301.809     402.127
  O      836.747    -302.940     401.931
  C      835.963    -300.983     400.856
  O      835.492    -299.665     401.062
  C      837.450    -301.086     400.543
  O      838.224    -300.189     401.337
  C      837.741    -302.562     400.942
  N      837.731    -303.472     399.810
  C      838.899    -303.513     399.038
  O      839.861    -302.806     399.331
  N      838.922    -304.343     397.931
  C      837.888    -305.066     397.643
  N      837.984    -305.859     396.543
  C      836.638    -305.067     398.435
  C      836.632    -304.253     399.498
  O      832.340    -304.627     403.191
  O      833.469    -304.396     405.497
  H      838.050    -299.296     400.988
  H      832.761    -305.002     405.784
  H      835.811    -305.693     398.149
  H      835.750    -304.194     400.125
  H      838.724    -302.640     401.436
  H      837.657    -300.881     399.497
  H      835.411    -301.478     400.044
  H      836.268    -301.236     402.992
  H      838.849    -305.820     396.020
  H      833.848    -301.423     402.750
  H      837.277    -306.523     396.260
  H      834.020    -302.738     401.562
  P      834.255    -299.099     400.197
  C      833.369    -297.821     402.257
  O      833.846    -297.722     400.918
  O      833.135    -300.073     399.971
  O      834.964    -298.608     398.840
  H      835.218    -299.363     398.271
  H      833.131    -296.844     402.624
  H      834.126    -298.260     402.874
  H      832.492    -298.433     402.279

 6  7  8  9  10  11  12  13  14  15  16  26  30  31  32  33  35 0
 6-311+G(2d,p)
 ****
 37  38 0
 6-311+G(2d,p)
 ****
 1  2  3  4  5  17  18  19  20  21  22  23  24  25 0
 3-21G
 ****
 27  28  29  34  36  39  40  41  42  43  44  45  46 0
 3-21G
 ****


