%nproc=1
%NoSave
%Mem=1900MB
#P OB98/GEN NMR

erre ene a

0 1
  C      336.107    -147.231     495.346
  O      336.629    -148.265     494.538
  H      335.028    -147.372     495.445
  H      336.292    -146.262     494.876
  H      336.559    -147.254     496.342
  P      338.225    -148.395     494.448
  C      338.504    -146.832     492.389
  O      338.755    -147.038     493.772
  C      338.897    -145.409     491.993
  O      337.925    -144.486     492.565
  C      340.282    -144.981     492.491
  O      340.879    -144.140     491.498
  C      339.965    -144.152     493.720
  O      340.984    -143.226     494.072
  C      338.660    -143.478     493.285
  N      337.886    -142.968     494.414
  C      338.038    -141.624     494.740
  O      338.708    -140.819     494.098
  N      337.372    -141.212     495.866
  C      336.615    -141.994     496.688
  O      336.061    -141.569     497.694
  C      336.498    -143.407     496.298
  C      337.132    -143.821     495.196
  O      338.431    -149.489     493.299
  O      338.912    -148.763     495.720
  H      338.454    -150.384     493.682
  H      340.684    -142.753     494.878
  H      337.473    -140.242     496.117
  H      335.914    -144.059     496.930
  H      337.084    -144.862     494.891
  H      338.869    -142.661     492.584
  H      339.794    -144.810     494.581
  H      340.953    -145.817     492.720
  H      338.826    -145.314     490.903
  H      337.439    -146.978     492.187
  H      339.077    -147.561     491.806
  P      342.059    -144.768     490.610
  C      343.737    -143.049     491.658
  O      343.418    -144.402     491.381
  O      342.046    -143.793     489.345
  O      341.851    -146.213     490.303
  H      341.831    -142.874     489.575
  H      344.673    -143.002     492.174
  H      342.971    -142.620     492.270
  H      343.808    -142.504     490.740

 6  7  8  9  10  11  12  13  14  15  16  27  31  32  33  34  35 0
 6-311+G(2d,p)
 ****
 36  37 0
 6-311+G(2d,p)
 ****
 1  2  3  4  5  17  18  19  20  21  22  23  24  25 0
 3-21G
 ****
 26  28  29  30  38  39  40  41  42  43  44  45 0
 3-21G
 ****


