%nproc=1
%NoSave
%Mem=1900MB
#P OB98/GEN NMR

erre ene a

0 1
  C     -228.958    -103.226     554.603
  O     -229.552    -103.020     553.318
  P     -228.737    -103.558     552.046
  C     -227.261    -101.556     551.295
  O     -227.317    -102.796     551.993
  C     -225.937    -100.821     551.566
  O     -224.794    -101.649     551.197
  C     -225.790     -99.498     550.800
  O     -225.048     -98.601     551.622
  C     -224.941     -99.890     549.604
  O     -224.324     -98.755     549.003
  C     -224.002    -100.898     550.267
  N     -219.991    -101.488     547.138
  C     -220.339    -100.496     547.989
  N     -221.440    -100.407     548.771
  C     -222.201    -101.511     548.637
  C     -221.981    -102.589     547.810
  C     -220.813    -102.559     547.023
  N     -220.470    -103.555     546.129
  N     -223.011    -103.511     547.917
  C     -223.835    -102.975     548.803
  N     -223.377    -101.782     549.285
  O     -229.540    -102.932     550.806
  O     -228.665    -105.052     551.958
  H     -223.781     -98.315     549.682
  H     -230.041    -103.642     550.346
  H     -219.646     -99.660     548.042
  H     -224.785    -103.405     549.112
  H     -223.187    -100.408     550.815
  H     -225.573    -100.381     548.841
  H     -226.742     -99.034     550.503
  H     -225.860    -100.626     552.642
  H     -228.092    -100.908     551.611
  H     -219.639    -103.435     545.592
  H     -221.099    -104.334     546.002
  H     -227.402    -101.735     550.224
  P     -225.887     -97.673     552.624
  C     -225.880     -95.416     551.325
  O     -226.614     -96.573     551.707
  O     -224.759     -96.840     553.402
  O     -226.769     -98.431     553.560
  H     -225.094     -96.561     554.278
  H     -226.111     -95.179     550.281
  H     -224.800     -95.561     551.415
  H     -226.176     -94.574     551.955
  H     -229.598    -102.824     555.360
  H     -228.009    -102.734     554.640
  H     -228.823    -104.274     554.770

 3  4  5  6  7  8  9  10  11  12  22  25  29  30  31  32 0
 6-311+G(2d,p)
 ****
 33  36  37 0
 6-311+G(2d,p)
 ****
 1  2  13  14  15  16  17  18  19  20  21  23  24  26 0
 3-21G
 ****
 27  28  34  35  38  39  40  41  42  43  44  45  46  47  48 0
 3-21G
 ****


