%nproc=1
%NoSave
%Mem=1900MB
#P OB98/GEN NMR

erre ene a

0 1
  C     -248.408      11.378     366.138
  O     -248.243      12.531     365.333
  H     -248.275      11.659     367.187
  H     -247.662      10.618     365.887
  H     -249.412      10.966     366.010
  P     -248.238      12.348     363.741
  C     -249.292      14.650     363.198
  O     -249.459      13.234     363.203
  C     -250.526      15.323     363.789
  O     -250.722      14.904     365.154
  C     -250.416      16.841     363.831
  O     -250.614      17.400     362.549
  C     -251.478      17.175     364.863
  O     -252.789      17.155     364.287
  C     -251.300      16.016     365.873
  N     -250.476      16.388     367.019
  C     -251.169      16.758     368.178
  O     -252.398      16.758     368.198
  N     -250.439      17.145     369.277
  C     -249.146      17.144     369.231
  N     -248.486      17.538     370.353
  C     -248.379      16.748     368.034
  C     -249.101      16.389     366.973
  O     -248.221      10.942     363.222
  O     -246.951      13.178     363.271
  H     -252.812      17.900     363.652
  H     -246.162      12.606     363.261
  H     -247.299      16.757     368.042
  H     -248.616      16.081     366.054
  H     -252.278      15.680     366.245
  H     -251.320      18.162     365.294
  H     -249.443      17.137     364.239
  H     -251.403      15.007     363.209
  H     -249.053      17.813     371.147
  H     -249.153      14.956     362.156
  H     -247.484      17.495     370.463
  H     -248.397      14.933     363.764
  P     -249.361      17.759     361.612
  C     -250.302      16.648     359.483
  O     -249.309      16.596     360.506
  O     -248.081      18.016     362.331
  O     -249.888      19.021     360.777
  H     -249.910      19.838     361.335
  H     -250.165      15.827     358.811
  H     -250.212      17.568     358.945
  H     -251.274      16.588     359.926

 6  7  8  9  10  11  12  13  14  15  16  26  30  31  32  33  35 0
 6-311+G(2d,p)
 ****
 37  38 0
 6-311+G(2d,p)
 ****
 1  2  3  4  5  17  18  19  20  21  22  23  24  25 0
 3-21G
 ****
 27  28  29  34  36  39  40  41  42  43  44  45  46 0
 3-21G
 ****


