%nproc=1
%NoSave
%Mem=1900MB
#P OB98/GEN NMR

erre ene a

0 1
  C     -878.578     280.003    -895.900
  O     -877.541     280.696    -896.570
  H     -878.449     280.121    -894.830
  H     -878.532     278.939    -896.140
  H     -879.558     280.392    -896.190
  P     -877.627     280.786    -898.170
  C     -878.168     283.317    -898.370
  O     -878.639     281.982    -898.520
  C     -879.115     284.109    -897.450
  O     -879.069     283.540    -896.100
  C     -878.743     285.604    -897.330
  O     -879.953     286.375    -897.280
  C     -878.036     285.687    -895.990
  O     -878.102     286.986    -895.410
  C     -878.762     284.589    -895.190
  N     -877.934     284.098    -894.070
  C     -878.298     284.518    -892.800
  O     -879.281     285.259    -892.630
  N     -877.534     284.127    -891.730
  C     -876.437     283.475    -891.940
  N     -875.697     283.146    -890.830
  C     -875.962     283.072    -893.280
  C     -876.749     283.409    -894.290
  O     -878.452     279.476    -898.570
  O     -876.309     280.858    -898.880
  H     -879.047     287.166    -895.190
  H     -878.190     279.142    -899.450
  H     -875.026     282.537    -893.400
  H     -876.488     283.170    -895.320
  H     -879.706     284.961    -894.790
  H     -876.987     285.430    -896.120
  H     -878.118     285.945    -898.160
  H     -880.142     283.996    -897.820
  H     -876.043     283.440    -889.930
  H     -878.147     283.790    -899.330
  H     -874.800     282.663    -890.890
  H     -877.155     283.300    -897.950
  P     -880.459     287.008    -898.670
  C     -883.067     286.848    -898.820
  O     -881.805     286.228    -899.110
  O     -879.367     286.493    -899.730
  O     -880.547     288.506    -898.630
  H     -878.797     287.252    -900.000
  H     -883.861     286.220    -899.167
  H     -883.120     287.796    -899.313
  H     -883.160     286.990    -897.764

 6  7  8  9  10  11  12  13  14  15  16  26  30  31  32  33  35 0
 6-311+G(2d,p)
 ****
 37  38 0
 6-311+G(2d,p)
 ****
 1  2  3  4  5  17  18  19  20  21  22  23  24  25 0
 3-21G
 ****
 27  28  29  34  36  39  40  41  42  43  44  45  46 0
 3-21G
 ****


