%nproc=1
%NoSave
%Mem=1900MB
#P OB98/GEN NMR

erre ene a

0 1
  C      862.852    -300.796     279.135
  O      862.835    -300.587     277.736
  H      862.802    -301.872     279.328
  H      861.990    -300.314     279.602
  H      863.778    -300.406     279.562
  P      862.867    -299.064     277.240
  C      865.322    -299.307     276.451
  O      863.976    -299.044     276.080
  C      866.176    -299.581     275.218
  O      865.867    -300.874     274.675
  C      865.980    -298.582     274.081
  O      866.766    -297.423     274.295
  C      866.490    -299.390     272.897
  O      867.928    -299.330     272.859
  C      866.031    -300.818     273.234
  N      863.692    -301.936     268.805
  C      864.894    -301.376     269.066
  N      865.427    -301.055     270.266
  C      864.588    -301.388     271.262
  C      863.334    -301.961     271.148
  C      862.888    -302.246     269.845
  N      861.661    -302.817     269.582
  N      862.762    -302.151     272.387
  C      863.685    -301.754     273.241
  N      864.794    -301.247     272.611
  O      863.016    -298.035     278.311
  O      861.500    -298.981     276.411
  H      868.168    -298.384     272.844
  H      861.365    -299.796     275.894
  H      865.504    -301.149     268.198
  H      863.607    -301.827     274.322
  H      866.789    -301.561     272.964
  H      866.128    -299.005     271.942
  H      864.918    -298.352     273.931
  H      867.227    -299.601     275.532
  H      865.367    -300.167     277.131
  H      861.346    -302.806     268.623
  H      861.015    -302.924     270.348
  H      865.696    -298.428     276.987
  P      866.169    -295.957     274.040
  C      865.152    -295.364     276.331
  O      866.270    -295.219     275.463
  O      864.825    -295.941     273.395
  O      867.288    -295.220     273.169
  H      866.913    -294.425     272.743
  H      865.336    -294.832     277.241
  H      865.001    -296.401     276.548
  H      864.278    -294.968     275.857

 6  7  8  9  10  11  12  13  14  15  25  28  32  33  34  35 0
 6-311+G(2d,p)
 ****
 36  39  40 0
 6-311+G(2d,p)
 ****
 1  2  3  4  5  16  17  18  19  20  21  22  23  24 0
 3-21G
 ****
 26  27  29  30  31  37  38  41  42  43  44  45  46  47 0
 3-21G
 ****
 48 0
 3-21G
 ****


