%nproc=1
%NoSave
%Mem=1900MB
#P OB98/GEN NMR

erre ene a

0 1
  C       32.209      65.017     -77.338
  O       31.194      64.134     -77.760
  P       29.995      64.653     -78.690
  C       27.752      64.235     -77.498
  O       28.833      65.141     -77.695
  C       28.189      63.086     -76.595
  O       28.928      63.575     -75.447
  C       27.037      62.298     -75.989
  O       26.226      61.554     -76.871
  C       27.747      61.531     -74.887
  O       28.404      60.372     -75.398
  C       28.787      62.575     -74.407
  N       28.410      63.172     -73.127
  C       29.050      62.660     -72.005
  O       29.886      61.759     -72.049
  N       28.672      63.197     -70.804
  C       27.706      64.144     -70.618
  O       27.386      64.549     -69.508
  C       27.054      64.635     -71.840
  C       27.428      64.137     -73.022
  O       29.549      63.696     -79.743
  O       30.552      66.039     -79.265
  H       29.025      60.668     -76.091
  H       30.768      66.705     -78.588
  H       29.113      62.831     -69.976
  H       26.292      65.396     -71.728
  H       26.960      64.483     -73.937
  H       29.771      62.106     -74.288
  H       27.051      61.192     -74.112
  H       26.360      63.009     -75.498
  H       28.865      62.441     -77.163
  H       27.448      63.830     -78.468
  H       26.898      64.773     -77.075
  P       24.744      61.066     -76.506
  C       24.574      58.482     -76.385
  O       24.851      59.685     -75.700
  O       23.723      61.152     -77.592
  O       24.347      62.096     -75.338
  H       23.384      62.251     -75.365
  H       24.651      57.652     -75.677
  H       25.298      58.325     -77.188
  H       23.559      58.498     -76.792
  H       32.912      64.487     -76.730
  H       31.775      65.813     -76.770
  H       32.709      65.420     -78.194

 3  4  5  6  7  8  9  10  11  12  13  23  28  29  30  31  32 0
 6-311+G(2d,p)
 ****
 33  34 0
 6-311+G(2d,p)
 ****
 1  2  14  15  16  17  18  19  20  21  22  24  25  26  27 0
 3-21G
 ****
 35  36  37  38  39  40  41  42  43  44  45 0
 3-21G
 ****


