%nproc=1
%NoSave
%Mem=1900MB
#P OB98/GEN NMR

erre ene a

0 1
  C      -21.771      68.834     738.891
  O      -21.084      68.974     737.644
  P      -19.560      69.465     737.713
  C      -20.166      71.982     737.940
  O      -19.520      70.852     738.516
  C      -19.525      73.271     738.456
  O      -18.102      73.293     738.214
  C      -20.064      74.526     737.782
  O      -21.355      74.852     738.269
  C      -18.980      75.534     738.146
  O      -19.159      76.002     739.494
  C      -17.704      74.680     738.060
  N      -14.691      77.779     735.320
  C      -15.235      77.907     736.552
  N      -16.033      77.034     737.207
  C      -16.236      75.925     736.474
  C      -15.743      75.659     735.212
  C      -14.929      76.645     734.625
  N      -14.388      76.523     733.363
  N      -16.170      74.419     734.776
  C      -16.928      73.963     735.750
  N      -16.993      74.834     736.804
  O      -19.239      69.886     736.205
  O      -18.616      68.415     738.203
  H      -19.994      76.510     739.520
  H      -18.633      69.233     735.794
  H      -15.010      78.833     737.074
  H      -17.451      73.013     735.740
  H      -16.997      74.909     738.862
  H      -18.973      76.415     737.493
  H      -20.098      74.385     736.695
  H      -19.697      73.324     739.541
  H      -21.229      71.974     738.191
  H      -13.883      77.308     732.987
  H      -14.630      75.719     732.802
  H      -20.093      71.911     736.851
  P      -22.621      74.421     737.379
  C      -22.522      76.651     736.108
  O      -22.424      75.244     736.013
  O      -23.808      75.212     738.097
  O      -22.813      72.948     737.229
  H      -23.560      76.131     738.286
  H      -22.330      77.086     735.125
  H      -21.774      77.033     736.822
  H      -23.522      76.940     736.441
  H      -22.772      68.503     738.711
  H      -21.792      69.778     739.394
  H      -21.262      68.117     739.500

 3  4  5  6  7  8  9  10  11  12  22  25  29  30  31  32 0
 6-311+G(2d,p)
 ****
 33  36  37 0
 6-311+G(2d,p)
 ****
 1  2  13  14  15  16  17  18  19  20  21  23  24  26 0
 3-21G
 ****
 27  28  34  35  38  39  40  41  42  43  44  45  46  47  48 0
 3-21G
 ****


