%nproc=1
%NoSave
%Mem=1900MB
#P OB98/GEN NMR

erre ene a

0 1
  C     -474.165      43.368      32.318
  O     -473.835      42.611      31.170
  H     -474.215      42.696      33.179
  H     -475.137      43.850      32.190
  H     -473.394      44.122      32.504
  P     -473.746      43.412      29.783
  C     -475.376      41.595      28.919
  O     -474.191      42.340      28.675
  C     -475.509      40.454      27.914
  O     -475.713      40.978      26.589
  C     -474.287      39.547      27.827
  O     -474.324      38.567      28.855
  C     -474.486      38.922      26.457
  O     -475.432      37.839      26.552
  C     -475.092      40.076      25.640
  N     -474.566      43.769      22.114
  C     -475.658      43.134      22.590
  N     -475.722      42.126      23.485
  C     -474.491      41.782      23.905
  C     -473.285      42.340      23.503
  C     -473.350      43.384      22.566
  N     -472.234      44.027      22.081
  N     -472.226      41.732      24.144
  C     -472.788      40.863      24.961
  N     -474.154      40.831      24.828
  O     -472.463      44.128      29.531
  O     -475.039      44.353      29.890
  H     -475.178      37.309      27.330
  H     -475.788      43.860      30.272
  H     -476.609      43.483      22.199
  H     -472.256      40.251      25.681
  H     -475.877      39.724      24.962
  H     -473.564      38.503      26.048
  H     -473.354      40.121      27.829
  H     -476.405      39.875      28.176
  H     -476.255      42.249      28.854
  H     -472.358      44.623      21.277
  H     -471.328      43.650      22.323
  H     -475.315      41.199      29.939
  P     -473.355      38.668      30.129
  C     -471.772      36.779      29.396
  O     -472.771      37.186      30.322
  O     -473.979      39.283      31.333
  O     -472.088      39.485      29.599
  H     -471.571      39.825      30.355
  H     -471.461      35.781      29.623
  H     -470.932      37.438      29.465
  H     -472.171      36.812      28.404

 6  7  8  9  10  11  12  13  14  15  25  28  32  33  34  35 0
 6-311+G(2d,p)
 ****
 36  39  40 0
 6-311+G(2d,p)
 ****
 1  2  3  4  5  16  17  18  19  20  21  22  23  24 0
 3-21G
 ****
 26  27  29  30  31  37  38  41  42  43  44  45  46  47 0
 3-21G
 ****
 48 0
 3-21G
 ****


