%nproc=1
%NoSave
%Mem=1900MB
#P OB98/GEN NMR

erre ene a

0 1
  C      416.666    -896.790    -403.608
  O      416.707    -897.190    -404.964
  H      415.667    -897.020    -403.196
  H      416.856    -895.720    -403.502
  H      417.410    -897.360    -403.032
  P      418.025    -896.840    -405.812
  C      419.595    -898.570    -404.694
  O      419.232    -897.210    -404.815
  C      421.083    -898.750    -405.017
  O      421.369    -898.340    -406.368
  C      422.029    -897.920    -404.148
  O      422.170    -898.420    -402.825
  C      423.304    -898.050    -404.962
  O      423.885    -899.350    -404.751
  C      422.748    -897.900    -406.402
  N      422.864    -896.560    -406.915
  C      423.552    -896.390    -408.122
  O      424.037    -897.340    -408.707
  N      423.716    -895.110    -408.625
  C      423.228    -894.090    -407.980
  N      423.445    -892.860    -408.505
  C      422.467    -894.220    -406.715
  C      422.335    -895.460    -406.255
  O      418.080    -895.490    -406.432
  O      418.122    -898.030    -406.881
  H      423.189    -900.000    -404.906
  H      418.923    -897.880    -407.430
  H      422.118    -893.360    -406.216
  H      421.807    -895.640    -405.321
  H      423.297    -898.580    -407.074
  H      424.062    -897.310    -404.686
  H      421.736    -896.870    -404.133
  H      421.319    -899.830    -404.935
  H      424.001    -892.810    -409.340
  H      418.966    -899.150    -405.365
  H      423.347    -892.030    -407.932
  H      419.418    -898.910    -403.664
  P      422.563    -897.380    -401.656
  C      420.238    -896.920    -400.586
  O      421.282    -896.440    -401.407
  O      423.594    -896.410    -402.405
  O      423.130    -897.990    -400.401
  H      424.515    -896.700    -402.241
  H      419.467    -896.181    -400.522
  H      420.619    -897.124    -399.607
  H      419.837    -897.818    -401.007

 6  7  8  9  10  11  12  13  14  15  16  26  30  31  32  33  35 0
 6-311+G(2d,p)
 ****
 37  38 0
 6-311+G(2d,p)
 ****
 1  2  3  4  5  17  18  19  20  21  22  23  24  25 0
 3-21G
 ****
 27  28  29  34  36  39  40  41  42  43  44  45  46 0
 3-21G
 ****


