%nproc=1
%NoSave
%Mem=1900MB
#P OB98/GEN NMR

erre ene a

0 1
  C     -280.251     420.784    -269.753
  O     -281.425     421.041    -270.507
  P     -282.834     421.066    -269.744
  C     -284.810     419.397    -269.420
  O     -283.468     419.592    -269.842
  C     -285.470     418.285    -270.236
  O     -285.883     418.812    -271.534
  C     -284.564     417.081    -270.507
  O     -285.380     415.905    -270.525
  C     -284.046     417.356    -271.908
  O     -283.536     416.204    -272.556
  C     -285.302     417.947    -272.536
  N     -285.033     418.677    -273.781
  C     -284.501     417.956    -274.843
  O     -284.245     416.749    -274.807
  N     -284.201     418.682    -275.968
  C     -284.290     420.030    -276.092
  O     -283.885     420.637    -277.086
  C     -284.857     420.746    -274.940
  C     -285.204     420.055    -273.854
  O     -283.766     421.943    -270.709
  O     -282.789     421.626    -268.352
  H     -283.277     416.467    -273.455
  H     -283.836     422.850    -270.375
  H     -283.825     418.174    -276.755
  H     -284.968     421.824    -275.023
  H     -285.603     420.552    -272.982
  H     -286.041     417.161    -272.735
  H     -283.234     418.101    -271.858
  H     -283.755     416.964    -269.772
  H     -286.383     417.967    -269.714
  H     -285.366     420.325    -269.561
  H     -284.830     419.160    -268.349
  P     -284.846     414.590    -269.764
  C     -284.278     412.211    -270.691
  O     -284.265     413.613    -270.886
  O     -286.229     413.908    -269.331
  O     -283.947     414.897    -268.602
  H     -286.901     413.931    -270.047
  H     -285.165     411.897    -270.128
  H     -283.384     411.911    -270.158
  H     -284.291     411.721    -271.666
  H     -279.400     420.801    -270.401
  H     -280.328     419.822    -269.290
  H     -280.140     421.535    -268.999

 3  4  5  6  7  8  9  10  11  12  13  23  28  29  30  31  32 0
 6-311+G(2d,p)
 ****
 33  34 0
 6-311+G(2d,p)
 ****
 1  2  14  15  16  17  18  19  20  21  22  24  25  26 0
 3-21G
 ****
 27  35  36  37  38  39  40  41  42  43  44  45 0
 3-21G
 ****


