%nproc=1
%NoSave
%Mem=1900MB
#P OB98/GEN NMR

erre ene a

0 1
  C      296.089     -69.367     162.688
  O      294.987     -69.671     163.517
  H      296.193     -70.154     161.936
  H      297.005     -69.325     163.282
  H      295.930     -68.410     162.181
  P      294.660     -68.637     164.698
  C      295.596     -68.268     167.089
  O      295.800     -68.858     165.813
  C      296.890     -68.296     167.903
  O      297.324     -69.678     168.050
  C      298.046     -67.514     167.259
  O      298.798     -66.870     168.291
  C      298.898     -68.609     166.639
  O      300.247     -68.198     166.451
  C      298.712     -69.726     167.662
  N      302.597     -72.713     166.524
  C      302.570     -71.461     167.109
  N      303.758     -70.916     167.441
  N      301.468     -70.800     167.349
  C      300.349     -71.474     166.988
  C      300.244     -72.706     166.390
  C      301.472     -73.421     166.113
  O      301.561     -74.520     165.575
  N      298.932     -73.028     166.152
  C      298.244     -71.990     166.603
  N      299.065     -71.026     167.123
  O      293.351     -69.254     165.384
  O      294.461     -67.219     164.277
  H      300.751     -68.970     166.118
  H      292.794     -68.549     165.766
  H      303.475     -73.175     166.353
  H      297.168     -71.890     166.576
  H      299.325     -69.576     168.561
  H      298.486     -68.899     165.665
  H      304.646     -71.382     167.318
  H      297.718     -66.775     166.527
  H      303.763     -70.005     167.886
  H      296.678     -67.924     168.912
  H      294.820     -68.828     167.622
  H      295.264     -67.233     166.957
  P      298.322     -65.412     168.757
  C      298.942     -62.946     168.228
  O      299.288     -64.317     168.089
  O      298.733     -65.376     170.305
  O      296.857     -65.167     168.582
  H      297.934     -65.429     170.859
  H      299.674     -62.342     167.735
  H      298.909     -62.690     169.266
  H      297.982     -62.774     167.788

 6  7  8  9  10  11  12  13  14  15  26  29  33  34 0
 6-311+G(2d,p)
 ****
 36  38  39  40  41 0
 6-311+G(2d,p)
 ****
 1  2  3  4  5  16  17  18  19  20  21  22  23  24  25 0
 3-21G
 ****
 27  28  30  31  32  35  37  42  43  44  45  46  47 0
 3-21G
 ****
 48  49 0
 3-21G
 ****


