%nproc=1
%NoSave
%Mem=1900MB
#P OB98/GEN NMR

erre ene a

0 1
  C      244.348    -445.222    -220.828
  O      244.642    -444.042    -220.107
  H      245.118    -445.410    -221.582
  H      244.325    -446.063    -220.129
  H      243.369    -445.134    -221.307
  P      244.826    -442.706    -220.973
  C      246.191    -442.705    -223.178
  O      246.212    -442.864    -221.766
  C      247.387    -443.412    -223.805
  O      247.284    -444.837    -223.606
  C      247.517    -443.223    -225.311
  O      248.087    -441.959    -225.642
  C      248.463    -444.364    -225.656
  O      249.819    -443.983    -225.355
  C      248.005    -445.473    -224.696
  N      247.781    -449.499    -227.875
  C      248.816    -448.730    -227.465
  N      248.801    -447.670    -226.632
  C      247.556    -447.436    -226.185
  C      246.407    -448.133    -226.511
  C      246.548    -449.207    -227.405
  N      245.485    -449.978    -227.827
  N      245.317    -447.614    -225.847
  C      245.798    -446.618    -225.130
  N      247.143    -446.466    -225.310
  O      245.156    -441.588    -219.874
  O      243.651    -442.318    -221.809
  H      249.987    -443.146    -225.836
  H      244.751    -440.745    -220.149
  H      249.788    -449.003    -227.867
  H      245.209    -445.987    -224.476
  H      248.862    -445.995    -224.246
  H      248.430    -444.648    -226.710
  H      246.562    -443.378    -225.819
  H      248.293    -443.064    -223.287
  H      246.235    -441.639    -223.423
  H      245.672    -450.843    -228.301
  H      244.562    -449.756    -227.459
  H      245.255    -443.121    -223.566
  P      247.944    -441.459    -227.163
  C      248.969    -442.350    -229.373
  O      249.124    -442.190    -227.968
  O      248.431    -439.938    -227.088
  O      246.575    -441.578    -227.742
  H      248.034    -439.426    -227.816
  H      249.827    -442.850    -229.772
  H      248.870    -441.389    -229.833
  H      248.093    -442.932    -229.571

 6  7  8  9  10  11  12  13  14  15  25  28  32  33  34  35 0
 6-311+G(2d,p)
 ****
 36  39  40 0
 6-311+G(2d,p)
 ****
 1  2  3  4  5  16  17  18  19  20  21  22  23  24 0
 3-21G
 ****
 26  27  29  30  31  37  38  41  42  43  44  45  46  47  48 0
 3-21G
 ****


