%nproc=1
%NoSave
%Mem=1900MB
#P OB98/GEN NMR

erre ene a

0 1
  C      482.523    -101.781     -86.104
  O      483.781    -101.855     -85.471
  H      482.620    -101.170     -87.005
  H      481.799    -101.306     -85.436
  H      482.163    -102.771     -86.391
  P      484.000    -102.940     -84.315
  C      485.367    -104.533     -85.818
  O      484.196    -104.361     -85.033
  C      485.344    -105.885     -86.540
  O      484.092    -106.012     -87.263
  C      486.469    -105.989     -87.575
  O      486.880    -107.336     -87.789
  C      485.808    -105.467     -88.839
  O      486.446    -105.921     -90.034
  C      484.380    -105.980     -88.671
  N      481.360    -105.482     -92.746
  C      482.382    -106.385     -92.521
  N      482.625    -107.275     -93.511
  N      483.108    -106.399     -91.436
  C      482.800    -105.410     -90.564
  C      481.829    -104.443     -90.686
  C      481.006    -104.459     -91.877
  O      480.106    -103.668     -92.137
  N      481.819    -103.603     -89.601
  C      482.785    -104.056     -88.827
  N      483.392    -105.167     -89.357
  O      482.548    -103.086     -83.655
  O      485.037    -102.594     -83.292
  H      486.351    -106.889     -90.065
  H      482.621    -103.435     -82.749
  H      480.812    -105.533     -93.586
  H      483.070    -103.630     -87.872
  H      484.288    -107.003     -89.054
  H      485.873    -104.376     -88.836
  H      482.224    -107.169     -94.430
  H      487.337    -105.390     -87.312
  H      483.545    -107.723     -93.500
  H      485.372    -106.702     -85.810
  H      486.220    -104.476     -85.136
  H      485.468    -103.715     -86.533
  P      487.954    -107.977     -86.788
  C      486.440    -109.945     -85.876
  O      487.206    -108.786     -85.635
  O      488.568    -106.712     -86.031
  O      489.011    -108.795     -87.461
  H      489.515    -106.613     -86.247
  H      486.040    -110.307     -84.952
  H      487.061    -110.698     -86.315
  H      485.638    -109.710     -86.544

 6  7  8  9  10  11  12  13  14  15  26  29  33  34 0
 6-311+G(2d,p)
 ****
 36  38  39  40  41 0
 6-311+G(2d,p)
 ****
 1  2  3  4  5  16  17  18  19  20  21  22  23  24  25 0
 3-21G
 ****
 27  28  30  31  32  35  37  42  43  44  45  46  47 0
 3-21G
 ****
 48  49 0
 3-21G
 ****


