%nproc=1
%NoSave
%Mem=1900MB
#P OB98/GEN NMR

erre ene a

0 1
  C     -893.850      27.925     206.832
  O     -892.900      26.976     207.266
  H     -893.790      28.016     205.743
  H     -893.640      28.899     207.278
  H     -894.860      27.604     207.101
  P     -892.840      26.674     208.846
  C     -894.000      24.348     208.710
  O     -894.070      25.700     209.161
  C     -893.510      23.449     209.843
  O     -894.440      23.513     210.955
  C     -893.430      21.973     209.468
  O     -892.270      21.675     208.708
  C     -893.440      21.322     210.840
  O     -892.130      21.311     211.427
  C     -894.370      22.248     211.641
  N     -897.820      20.510     214.987
  C     -896.600      21.092     215.153
  N     -895.760      21.537     214.203
  C     -896.280      21.364     212.985
  C     -897.500      20.796     212.653
  C     -898.290      20.361     213.730
  N     -899.510      19.744     213.552
  N     -897.660      20.753     211.287
  C     -896.570      21.301     210.798
  N     -895.700      21.681     211.779
  O     -893.290      28.075     209.482
  O     -891.520      26.226     209.361
  H     -891.520      20.992     210.732
  H     -892.510      28.559     209.793
  H     -896.280      21.195     216.188
  H     -896.360      21.425     209.741
  H     -893.990      22.440     212.657
  H     -893.790      20.295     210.783
  H     -894.340      21.674     208.924
  H     -892.540      23.823     210.186
  H     -893.300      24.285     207.867
  H     -895.000      24.037     208.361
  H     -900.000      19.394     214.359
  H     -899.820      19.521     212.618
  P     -892.470      20.988     207.265
  C     -893.370      23.048     205.916
  O     -893.650      21.799     206.541
  O     -893.140      19.576     207.605
  O     -891.230      20.844     206.469
  H     -892.820      18.901     206.975
  H     -894.268      23.442     205.488
  H     -892.641      22.906     205.146
  H     -892.991      23.734     206.644

 6  7  8  9  10  11  12  13  14  15  25  28  32  33  34  35 0
 6-311+G(2d,p)
 ****
 36  37  40 0
 6-311+G(2d,p)
 ****
 1  2  3  4  5  16  17  18  19  20  21  22  23  24 0
 3-21G
 ****
 26  27  29  30  31  38  39 41  42  43  44  45  46  47  48 0
 3-21G
 ****


