%nproc=1
%NoSave
%Mem=1900MB
#P OB98/GEN NMR

erre ene a

0 1
  C      198.204       3.873      90.985
  O      198.112       4.863      89.981
  H      197.749       2.951      90.613
  H      197.667       4.194      91.882
  H      199.252       3.678      91.228
  P      198.674       6.317      90.362
  C      196.327       7.413      90.437
  O      197.601       7.375      89.811
  C      195.357       8.265      89.624
  O      195.969       9.517      89.245
  C      194.870       7.607      88.338
  O      193.782       6.735      88.594
  C      194.467       8.824      87.518
  O      193.167       9.309      87.916
  C      195.561       9.836      87.887
  N      197.681      12.049      83.875
  C      196.447      12.255      84.458
  N      195.645      13.169      83.869
  N      196.029      11.616      85.517
  C      196.910      10.691      85.966
  C      198.160      10.391      85.475
  C      198.633      11.146      84.335
  O      199.746      11.067      83.824
  N      198.759       9.404      86.216
  C      197.860       9.086      87.127
  N      196.719       9.836      87.014
  O      199.920       6.506      89.371
  O      199.086       6.492      91.784
  H      192.519       8.588      87.832
  H      200.631       6.975      89.849
  H      197.964      12.591      83.079
  H      197.991       8.332      87.892
  H      195.179      10.863      87.898
  H      194.395       8.587      86.455
  H      195.783      13.467      82.915
  H      195.686       7.082      87.830
  H      194.713      13.264      84.255
  H      194.508       8.510      90.276
  H      196.438       7.843      91.438
  H      195.939       6.394      90.527
  P      193.524       5.526      87.577
  C      191.036       6.059      87.057
  O      191.963       5.153      87.637
  O      194.234       4.288      88.305
  O      194.082       5.732      86.210
  H      195.073       4.079      87.857
  H      190.043       5.677      87.174
  H      191.253       6.174      86.016
  H      191.113       7.009      87.544

 6  7  8  9  10  11  12  13  14  15  26  29  33  34 0
 6-311+G(2d,p)
 ****
 36  38  39  40  41 0
 6-311+G(2d,p)
 ****
 1  2  3  4  5  16  17  18  19  20  21  22  23  24  25 0
 3-21G
 ****
 27  28  30  31  32  35  37  42  43  44  45  46  47 0
 3-21G
 ****
 48  49 0
 3-21G
 ****


