%nproc=1
%NoSave
%Mem=1900MB
#P OB98/GEN NMR

erre ene a

0 1
  C      122.493     195.408     214.002
  O      121.465     194.706     214.666
  H      123.211     195.760     214.747
  H      122.075     196.273     213.482
  H      123.015     194.766     213.289
  P      120.457     193.811     213.801
  C      121.553     191.473     213.825
  O      121.330     192.669     213.091
  C      122.119     190.375     212.918
  O      121.065     189.897     212.042
  C      123.237     190.910     212.016
  O      124.172     189.896     211.660
  C      122.484     191.346     210.771
  O      123.308     191.403     209.607
  C      121.383     190.292     210.697
  N      118.530     190.132     206.476
  C      119.807     189.651     206.684
  N      120.402     189.046     205.628
  N      120.451     189.774     207.815
  C      119.765     190.464     208.757
  C      118.506     191.006     208.662
  C      117.785     190.836     207.415
  O      116.663     191.262     207.168
  N      118.143     191.644     209.822
  C      119.183     191.490     210.618
  N      120.184     190.758     210.025
  O      120.069     194.764     212.570
  O      119.238     193.325     214.525
  H      123.760     190.542     209.526
  H      119.224     194.481     212.177
  H      118.068     189.984     205.594
  H      119.257     191.870     211.631
  H      121.734     189.401     210.161
  H      122.096     192.356     210.939
  H      120.019     189.109     204.697
  H      123.772     191.747     212.462
  H      121.423     188.974     205.663
  H      122.443     189.519     213.522
  H      120.589     191.170     214.242
  H      122.222     191.664     214.664
  P      125.685     190.320     211.354
  C      126.972     188.803     213.099
  O      126.589     190.085     212.649
  O      125.613     191.911     211.223
  O      126.273     189.683     210.133
  H      125.843     192.192     210.317
  H      127.572     188.899     213.980
  H      127.536     188.311     212.335
  H      126.098     188.228     213.324

 6  7  8  9  10  11  12  13  14  15  26  29  33  34 0
 6-311+G(2d,p)
 ****
 36  38  39  40  41 0
 6-311+G(2d,p)
 ****
 1  2  3  4  5  16  17  18  19  20  21  22  23  24  25 0
 3-21G
 ****
 27  28  30  31  32  35  37  42  43  44  45  46  47 0
 3-21G
 ****
 48  49 0
 3-21G
 ****


