%nproc=1
%NoSave
%Mem=1900MB
#P OB98/GEN NMR

erre ene a

0 1
  C     -239.062      90.909    1218.421
  O     -238.289      91.024    1217.246
  H     -239.457      89.888    1218.486
  H     -239.907      91.607    1218.382
  H     -238.456      91.108    1219.309
  P     -237.425      92.364    1217.066
  C     -235.593      90.716    1216.225
  O     -236.203      91.991    1216.091
  C     -234.097      90.823    1215.963
  O     -233.867      90.829    1214.524
  C     -233.442      92.100    1216.528
  O     -232.134      91.776    1216.998
  C     -233.345      93.002    1215.314
  O     -232.345      94.014    1215.427
  C     -233.045      91.975    1214.222
  N     -233.324      92.489    1212.882
  C     -233.328      91.581    1211.831
  O     -233.198      90.363    1211.963
  N     -233.497      92.120    1210.580
  C     -233.637      93.447    1210.293
  O     -233.756      93.878    1209.146
  C     -233.617      94.361    1211.437
  C     -233.461      93.845    1212.660
  O     -236.717      92.536    1218.487
  O     -238.191      93.575    1216.660
  H     -237.278      93.066    1219.084
  H     -231.497      93.553    1215.653
  H     -233.500      91.473    1209.809
  H     -233.708      95.423    1211.234
  H     -233.417      94.506    1213.539
  H     -231.998      91.651    1214.278
  H     -234.303      93.499    1215.132
  H     -234.013      92.574    1217.345
  H     -233.594      89.937    1216.363
  H     -236.027      90.028    1215.489
  H     -235.787      90.327    1217.230
  P     -231.852      91.896    1218.570
  C     -230.529      89.676    1218.997
  O     -230.497      91.090    1218.834
  O     -233.002      90.955    1219.159
  O     -231.876      93.306    1219.065
  H     -233.195      90.178    1218.584
  H     -229.536      89.314    1219.163
  H     -230.930      89.224    1218.114
  H     -231.145      89.428    1219.836

 6  7  8  9  10  11  12  13  14  15  16  27  31  32  33  34  35 0
 6-311+G(2d,p)
 ****
 36  37 0
 6-311+G(2d,p)
 ****
 1  2  3  4  5  17  18  19  20  21  22  23  24  25 0
 3-21G
 ****
 26  28  29  30  38  39  40  41  42  43  44  45 0
 3-21G
 ****


