%nproc=1
%NoSave
%Mem=1900MB
#P OB98/GEN NMR

erre ene a

0 1
  C     -133.755     239.523    -401.991
  O     -133.379     239.120    -400.672
  P     -132.375     240.086    -399.880
  C     -133.525     240.082    -397.553
  O     -133.199     240.821    -398.720
  C     -134.945     239.529    -397.660
  O     -135.073     238.590    -398.750
  C     -135.393     238.764    -396.420
  O     -135.707     239.652    -395.360
  C     -136.586     237.994    -396.976
  O     -137.744     238.839    -397.052
  C     -136.108     237.642    -398.394
  N     -137.330     232.674    -398.490
  C     -138.086     233.786    -398.361
  N     -137.684     235.076    -398.343
  C     -136.351     235.161    -398.487
  C     -135.454     234.114    -398.631
  C     -135.992     232.816    -398.625
  N     -135.223     231.682    -398.740
  N     -134.166     234.591    -398.750
  C     -134.280     235.901    -398.655
  N     -135.584     236.293    -398.506
  O     -132.076     241.252    -400.934
  O     -131.119     239.411    -399.435
  H     -138.473     238.304    -397.425
  H     -131.166     241.173    -401.272
  H     -139.156     233.623    -398.258
  H     -133.456     236.601    -398.687
  H     -136.907     237.737    -399.137
  H     -136.856     237.123    -396.367
  H     -134.611     238.065    -396.103
  H     -135.627     240.368    -397.843
  H     -133.441     240.714    -396.664
  H     -135.677     230.788    -398.647
  H     -134.217     231.773    -398.756
  H     -132.795     239.274    -397.434
  P     -134.533     240.046    -394.346
  C     -135.073     242.555    -394.390
  O     -134.152     241.549    -394.768
  O     -133.307     239.201    -394.925
  O     -134.848     239.838    -392.904
  H     -133.243     239.270    -395.893
  H     -134.678     243.525    -394.708
  H     -135.199     242.563    -393.305
  H     -136.035     242.388    -394.878
  H     -134.423     238.799    -402.408
  H     -132.881     239.597    -402.604
  H     -134.243     240.475    -401.948

 3  4  5  6  7  8  9  10  11  12  22  25  29  30  31  32 0
 6-311+G(2d,p)
 ****
 33  36  37 0
 6-311+G(2d,p)
 ****
 1  2  13  14  15  16  17  18  19  20  21  23  24  26 0
 3-21G
 ****
 27  28  34  35  38  39  40  41  42  43  44  45  46  47  48 0
 3-21G
 ****


