%nproc=1
%NoSave
%Mem=1900MB
#P OB98/GEN NMR

erre ene a

0 1
  C      -97.489     228.583      78.250
  O      -98.374     228.405      77.168
  P      -99.615     227.404      77.193
  C     -101.602     229.102      77.123
  O     -100.858     228.151      77.876
  C     -103.087     229.074      77.515
  O     -103.761     230.171      76.845
  C     -103.769     227.776      77.045
  O     -104.668     227.218      77.995
  C     -104.341     228.166      75.689
  O     -105.383     227.312      75.245
  C     -104.721     229.624      75.918
  N     -107.243     230.874      71.687
  C     -107.681     230.147      72.777
  N     -108.873     229.530      72.637
  N     -106.992     230.015      73.881
  C     -105.771     230.596      73.831
  C     -105.229     231.342      72.807
  C     -106.012     231.506      71.606
  O     -105.617     232.046      70.573
  N     -103.938     231.715      73.077
  C     -103.684     231.170      74.251
  N     -104.756     230.451      74.730
  O      -99.331     225.996      77.601
  O     -100.049     227.385      75.637
  H     -105.878     227.785      74.550
  H     -100.380     226.485      75.442
  H     -107.787     230.871      70.832
  H     -102.742     231.235      74.779
  H     -105.712     229.711      76.373
  H     -103.529     228.084      74.956
  H     -109.356     229.491      71.749
  H     -103.028     226.984      76.905
  H     -109.096     228.801      73.310
  H     -103.181     229.231      78.592
  H     -101.484     228.825      76.072
  H     -101.187     230.104      77.255
  P     -105.219     225.723      78.093
  C     -103.393     224.910      79.701
  O     -103.992     224.747      78.431
  O     -105.589     225.319      76.591
  O     -106.405     225.552      78.983
  H     -106.415     224.794      76.590
  H     -102.425     224.399      79.698
  H     -104.029     224.462      80.466
  H     -103.234     225.969      79.924
  H      -96.744     229.305      77.987
  H      -97.017     227.651      78.481
  H      -98.034     228.928      79.104

 3  4  5  6  7  8  9  10  11  12  23  26  30  31 0
 6-311+G(2d,p)
 ****
 33  35  36  37  38 0
 6-311+G(2d,p)
 ****
 1  2  13  14  15  16  17  18  19  20  21  22  24  25 0
 3-21G
 ****
 27  28  29  32  34  39  40  41  42  43  44  45  46  47  48  49 0
 3-21G
 ****


