%nproc=1
%NoSave
%Mem=1900MB
#P OB98/GEN NMR

erre ene a

0 1
  C       54.530      19.099      50.139
  O       54.752      20.149      49.196
  P       53.749      20.203      47.945
  C       52.271      22.241      48.576
  O       52.361      20.829      48.450
  C       51.098      22.783      47.758
  O       49.834      22.242      48.185
  C       50.952      24.297      47.841
  O       51.884      24.922      46.976
  C       49.506      24.493      47.407
  O       49.389      24.522      45.970
  C       48.809      23.247      47.977
  N       44.863      25.584      50.133
  C       45.385      25.719      48.860
  N       44.750      26.580      48.039
  N       46.434      25.066      48.434
  C       46.966      24.238      49.363
  C       46.523      23.998      50.642
  C       45.363      24.730      51.104
  O       44.849      24.629      52.212
  N       47.285      23.042      51.267
  C       48.259      22.803      50.408
  N       48.077      23.453      49.214
  O       53.406      18.663      47.681
  O       54.339      20.850      46.736
  H       48.452      24.632      45.730
  H       53.820      18.370      46.847
  H       44.058      26.119      50.411
  H       49.100      22.152      50.592
  H       48.090      22.829      47.263
  H       49.099      25.442      47.767
  H       43.935      27.114      48.300
  H       51.084      24.632      48.877
  H       45.112      26.688      47.099
  H       51.259      22.483      46.714
  H       53.200      22.705      48.240
  H       52.158      22.493      49.636
  P       52.940      25.939      47.623
  C       54.885      24.373      48.327
  O       53.765      25.134      48.732
  O       52.014      26.931      48.473
  O       53.764      26.691      46.630
  H       52.305      27.851      48.332
  H       55.603      24.337      49.150
  H       55.373      24.804      47.449
  H       54.561      23.354      48.096
  H       55.255      19.165      50.923
  H       54.621      18.153      49.647
  H       53.548      19.193      50.553

 3  4  5  6  7  8  9  10  11  12  23  26  30  31 0
 6-311+G(2d,p)
 ****
 33  35  36  37  38 0
 6-311+G(2d,p)
 ****
 1  2  13  14  15  16  17  18  19  20  21  22  24  25 0
 3-21G
 ****
 27  28  29  32  34  39  40  41  42  43  44  45  46  47  48  49 0
 3-21G
 ****


