%nproc=1
%NoSave
%Mem=1900MB
#P OB98/GEN NMR

erre ene a

0 1
  C     -391.853      75.212     422.891
  O     -393.261      75.357     422.889
  H     -391.579      74.425     422.182
  H     -391.491      74.923     423.881
  H     -391.376      76.146     422.582
  P     -393.925      76.344     423.965
  C     -395.290      74.337     424.865
  O     -394.399      75.405     425.173
  C     -394.924      73.097     425.674
  O     -393.562      72.707     425.400
  C     -394.995      73.318     427.180
  O     -396.336      73.324     427.625
  C     -394.140      72.171     427.680
  O     -394.877      70.941     427.694
  C     -393.022      72.132     426.611
  N     -391.814      72.838     427.030
  C     -390.670      72.609     426.255
  O     -390.716      71.857     425.281
  N     -389.500      73.222     426.628
  C     -389.472      74.001     427.662
  N     -388.281      74.580     427.973
  C     -390.657      74.281     428.494
  C     -391.782      73.667     428.129
  O     -394.974      77.284     423.462
  O     -392.669      77.122     424.584
  H     -395.220      70.826     426.785
  H     -392.480      77.932     424.070
  H     -390.593      74.944     429.345
  H     -392.701      73.816     428.687
  H     -392.751      71.096     426.377
  H     -393.780      72.352     428.689
  H     -394.493      74.258     427.445
  H     -395.582      72.275     425.365
  H     -387.490      74.350     427.378
  H     -395.192      74.131     423.792
  H     -388.162      75.271     428.698
  H     -396.327      74.628     425.067
  P     -396.921      74.578     428.437
  C     -397.246      72.949     430.411
  O     -396.730      74.211     429.987
  O     -398.300      75.004     428.039
  O     -395.816      75.714     428.198
  H     -395.865      76.077     427.282
  H     -397.059      72.820     431.457
  H     -396.766      72.165     429.864
  H     -398.300      72.916     430.230

 6  7  8  9  10  11  12  13  14  15  16  26  30  31  32  33  35 0
 6-311+G(2d,p)
 ****
 37  38 0
 6-311+G(2d,p)
 ****
 1  2  3  4  5  17  18  19  20  21  22  23  24  25 0
 3-21G
 ****
 27  28  29  34  36  39  40  41  42  43  44  45  46 0
 3-21G
 ****


