%nproc=1
%NoSave
%Mem=1900MB
#P OB98/GEN NMR

erre ene a

0 1
  C      719.824    -766.687     267.620
  O      719.305    -767.400     268.738
  P      718.653    -766.564     269.950
  C      716.326    -766.686     268.701
  O      717.246    -765.969     269.509
  C      714.911    -766.146     268.946
  O      714.343    -766.742     270.151
  C      714.852    -764.635     269.138
  O      714.750    -763.954     267.904
  C      713.637    -764.465     270.026
  O      712.431    -764.577     269.251
  C      713.786    -765.677     270.972
  N      714.636    -765.521     272.191
  C      714.330    -764.555     273.137
  O      713.362    -763.789     273.048
  N      715.132    -764.488     274.233
  C      716.119    -765.375     274.554
  O      716.792    -765.308     275.578
  C      716.321    -766.474     273.608
  C      715.597    -766.486     272.474
  O      719.595    -765.258     270.051
  O      718.584    -767.299     271.241
  H      711.687    -764.355     269.834
  H      720.069    -765.246     270.905
  H      714.971    -763.750     274.898
  H      717.059    -767.236     273.835
  H      715.735    -767.290     271.755
  H      712.810    -766.025     271.323
  H      713.612    -763.476     270.485
  H      715.742    -764.296     269.701
  H      714.272    -766.445     268.112
  H      716.362    -767.753     268.925
  H      716.586    -766.569     267.649
  P      715.304    -762.460     267.753
  C      716.905    -763.364     265.962
  O      716.798    -762.615     267.148
  O      715.207    -761.592     268.983
  O      714.499    -761.864     266.509
  H      713.727    -761.343     266.828
  H      717.925    -763.264     265.565
  H      716.204    -763.004     265.204
  H      716.717    -764.429     266.190
  H      720.219    -767.380     266.907
  H      720.602    -766.029     267.947
  H      719.041    -766.116     267.166

 3  4  5  6  7  8  9  10  11  12  13  23  28  29  30  31  32 0
 6-311+G(2d,p)
 ****
 33  34 0
 6-311+G(2d,p)
 ****
 1  2  14  15  16  17  18  19  20  21  22  24  25  26  27 0
 3-21G
 ****
 35  36  37  38  39  40  41  42  43  44  45 0
 3-21G
 ****


