%nproc=1
%NoSave
%Mem=1900MB
#P OB98/GEN NMR

erre ene a

0 1
  C       59.393      19.370      -3.597
  O       58.549      19.212      -2.479
  H       59.192      18.561      -4.304
  H       60.437      19.308      -3.279
  H       59.219      20.325      -4.099
  P       58.298      20.467      -1.521
  C       55.868      20.516      -2.391
  O       57.028      21.277      -2.080
  C       54.835      20.576      -1.266
  O       54.555      21.954      -0.936
  C       53.501      19.936      -1.659
  O       53.430      18.539      -1.432
  C       52.517      20.687      -0.766
  O       52.377      20.045       0.512
  C       53.164      22.067      -0.606
  N       48.952      24.777      -1.629
  C       49.097      23.681      -0.798
  N       47.971      23.240      -0.199
  N       50.239      23.079      -0.596
  C       51.254      23.573      -1.339
  C       51.226      24.638      -2.211
  C       49.975      25.347      -2.372
  O       49.798      26.331      -3.082
  N       52.444      24.825      -2.820
  C       53.176      23.821      -2.382
  N       52.525      23.082      -1.422
  O       59.515      21.452      -1.870
  O       58.270      20.164      -0.054
  H       53.245      20.070       0.959
  H       59.758      21.965      -1.079
  H       48.055      25.217      -1.722
  H       54.194      23.609      -2.689
  H       53.111      22.414       0.433
  H       51.522      20.709      -1.217
  H       47.054      23.612      -0.385
  H       53.256      20.161      -2.700
  H       47.997      22.330       0.265
  H       55.254      20.110      -0.365
  H       56.202      19.488      -2.538
  H       55.430      20.858      -3.332
  P       52.607      17.588      -2.417
  C       54.837      16.837      -3.580
  O       53.507      17.290      -3.699
  O       51.466      18.556      -2.983
  O       52.038      16.356      -1.794
  H       50.629      18.420      -2.501
  H       55.256      16.701      -4.555
  H       54.851      15.906      -3.052
  H       55.413      17.560      -3.042

 6  7  8  9  10  11  12  13  14  15  26  29  33  34 0
 6-311+G(2d,p)
 ****
 36  38  39  40  41 0
 6-311+G(2d,p)
 ****
 1  2  3  4  5  16  17  18  19  20  21  22  23  24  25 0
 3-21G
 ****
 27  28  30  31  32  35  37  42  43  44  45  46  47 0
 3-21G
 ****
 48  49 0
 3-21G
 ****


