%nproc=1
%NoSave
%Mem=1900MB
#P OB98/GEN NMR

erre ene a

0 1
  C      135.235      67.380      21.229
  O      136.289      66.453      21.032
  P      137.680      67.008      20.450
  C      138.601      68.095      22.631
  O      138.068      68.292      21.333
  C      139.473      69.281      23.040
  O      139.958      69.057      24.391
  C      140.699      69.516      22.151
  O      140.941      70.929      22.133
  C      141.813      68.820      22.913
  O      143.106      69.293      22.554
  C      141.400      69.117      24.351
  N      145.673      67.350      26.400
  C      145.493      68.273      25.386
  N      146.613      68.845      24.892
  N      144.325      68.604      24.901
  C      143.298      67.962      25.506
  C      143.350      67.002      26.489
  C      144.642      66.673      27.042
  O      144.841      65.926      27.999
  N      142.103      66.517      26.783
  C      141.293      67.239      26.036
  N      141.968      68.161      25.279
  O      137.251      67.633      19.041
  O      138.778      66.000      20.322
  H      143.766      68.706      22.974
  H      137.374      66.986      18.319
  H      146.597      67.148      26.745
  H      140.218      67.146      26.006
  H      141.710      70.120      24.678
  H      141.780      67.741      22.710
  H      147.543      68.660      25.240
  H      140.581      69.136      21.133
  H      146.509      69.548      24.171
  H      138.842      70.181      23.067
  H      139.221      67.193      22.628
  H      137.782      67.948      23.345
  P      141.759      71.534      20.895
  C      139.650      71.139      19.444
  O      141.054      71.022      19.553
  O      143.128      70.700      20.931
  O      142.029      73.001      20.979
  H      143.860      71.257      20.609
  H      139.377      71.136      18.385
  H      139.288      72.067      19.898
  H      139.173      70.287      19.934
  H      134.379      66.869      21.618
  H      134.984      67.838      20.295
  H      135.547      68.133      21.923

 3  4  5  6  7  8  9  10  11  12  23  26  30  31 0
 6-311+G(2d,p)
 ****
 33  35  36  37  38 0
 6-311+G(2d,p)
 ****
 1  2  13  14  15  16  17  18  19  20  21  22  24  25 0
 3-21G
 ****
 27  28  29  32  34  39  40  41  42  43  44  45  46  47  48  49 0
 3-21G
 ****


