%nproc=1
%NoSave
%Mem=1900MB
#P OB98/GEN NMR

erre ene a

0 1
  C     -224.278    -170.015    -104.935
  O     -224.643    -171.081    -105.790
  H     -224.842    -169.125    -105.221
  H     -223.210    -169.804    -105.036
  H     -224.510    -170.264    -103.895
  P     -224.015    -172.520    -105.471
  C     -226.242    -173.836    -105.773
  O     -224.926    -173.592    -106.246
  C     -227.218    -172.853    -106.420
  O     -227.236    -173.095    -107.854
  C     -228.657    -173.000    -105.911
  O     -229.262    -171.706    -105.844
  C     -229.329    -173.824    -106.998
  O     -230.737    -173.666    -107.048
  C     -228.609    -173.301    -108.245
  N     -228.694    -174.224    -109.373
  C     -229.733    -174.037    -110.280
  O     -230.537    -173.104    -110.241
  N     -229.831    -174.980    -111.269
  C     -229.033    -176.077    -111.423
  O     -229.186    -176.900    -112.318
  C     -227.958    -176.225    -110.430
  C     -227.842    -175.310    -109.466
  O     -224.399    -172.760    -103.934
  O     -222.551    -172.656    -105.725
  H     -223.695    -172.419    -103.350
  H     -230.930    -172.803    -107.469
  H     -230.581    -174.860    -111.936
  H     -227.311    -177.086    -110.515
  H     -227.070    -175.396    -108.709
  H     -229.016    -172.321    -108.539
  H     -229.111    -174.889    -106.845
  H     -228.715    -173.487    -104.938
  H     -226.846    -171.830    -106.271
  H     -226.264    -173.701    -104.685
  H     -226.528    -174.865    -106.010
  P     -229.291    -170.980    -104.409
  C     -229.743    -168.505    -105.130
  O     -230.258    -169.707    -104.582
  O     -227.823    -170.356    -104.342
  O     -229.642    -171.907    -103.294
  H     -227.496    -170.032    -105.199
  H     -230.520    -167.770    -105.171
  H     -229.376    -168.692    -106.118
  H     -228.944    -168.146    -104.515

 6  7  8  9  10  11  12  13  14  15  16  27  31  32  33  34  35 0
 6-311+G(2d,p)
 ****
 36  37 0
 6-311+G(2d,p)
 ****
 1  2  3  4  5  17  18  19  20  21  22  23  24  25 0
 3-21G
 ****
 26  28  29  30  38  39  40  41  42  43  44  45 0
 3-21G
 ****


