%nproc=1
%NoSave
%Mem=1900MB
#P OB98/GEN NMR

erre ene a

0 1
  C     -553.129      19.692    -899.436
  O     -553.067      19.391    -898.056
  P     -554.232      18.516    -897.396
  C     -552.807      17.348    -895.586
  O     -553.592      17.179    -896.766
  C     -551.321      17.481    -895.946
  O     -551.116      18.685    -896.726
  C     -550.373      17.601    -894.746
  O     -549.847      16.417    -894.186
  C     -549.188      18.339    -895.376
  O     -548.324      17.376    -896.046
  C     -549.828      19.241    -896.406
  N     -547.363      23.591    -895.236
  C     -546.913      22.389    -895.686
  N     -547.641      21.281    -895.986
  C     -548.941      21.512    -895.776
  C     -549.535      22.673    -895.326
  C     -548.674      23.744    -895.036
  N     -549.120      24.968    -894.586
  N     -550.928      22.524    -895.226
  C     -551.147      21.277    -895.606
  N     -549.984      20.626    -895.956
  O     -555.456      18.315    -898.246
  O     -554.607      19.369    -896.096
  H     -548.033      16.751    -895.366
  H     -555.590      19.313    -895.946
  H     -545.843      22.305    -895.856
  H     -552.120      20.820    -895.626
  H     -549.247      19.289    -897.346
  H     -548.573      18.838    -894.626
  H     -550.821      18.219    -893.976
  H     -551.024      16.622    -896.576
  H     -552.951      16.488    -894.946
  H     -548.434      25.681    -894.376
  H     -550.116      25.094    -894.366
  H     -553.197      18.237    -895.056
  P     -550.720      15.522    -893.136
  C     -550.239      13.019    -893.706
  O     -551.048      14.161    -893.906
  O     -551.918      16.220    -892.586
  O     -549.634      15.098    -892.066
  H     -548.970      14.461    -892.386
  H     -550.752      12.145    -894.136
  H     -550.060      12.832    -892.646
  H     -549.259      13.148    -894.196
  H     -552.279      20.280    -899.712
  H     -554.024      20.241    -899.642
  H     -553.131      18.783    -900.000

 3  4  5  6  7  8  9  10  11  12  22  25  29  30  31  32 0
 6-311+G(2d,p)
 ****
 33  36  37 0
 6-311+G(2d,p)
 ****
 1  2  13  14  15  16  17  18  19  20  21  23  24  26 0
 3-21G
 ****
 27  28  34  35  38  39  40  41  42  43  44  45  46  47  48 0
 3-21G
 ****


