%nproc=1
%NoSave
%Mem=1900MB
#P OB98/GEN NMR

erre ene a

0 1
  C      -78.856      51.295     226.108
  O      -79.488      51.978     225.044
  H      -79.525      51.301     226.974
  H      -77.922      51.789     226.384
  H      -78.660      50.255     225.828
  P      -78.664      52.207     223.689
  C      -76.453      53.404     223.085
  O      -77.502      53.258     224.031
  C      -75.946      54.853     223.054
  O      -76.935      55.682     222.381
  C      -75.713      55.458     224.448
  O      -74.657      56.420     224.326
  C      -77.038      56.149     224.699
  O      -76.958      57.052     225.774
  C      -77.319      56.724     223.305
  N      -78.707      57.122     223.135
  C      -79.034      58.418     223.542
  O      -78.173      59.151     224.029
  N      -80.333      58.841     223.418
  C      -81.239      58.020     222.991
  N      -82.511      58.498     222.906
  C      -80.949      56.624     222.604
  C      -79.674      56.246     222.696
  O      -79.478      52.543     222.483
  O      -77.863      50.834     223.488
  H      -76.900      56.572     226.631
  H      -78.281      50.310     222.780
  H      -81.743      55.972     222.272
  H      -79.362      55.240     222.436
  H      -76.679      57.593     223.108
  H      -77.809      55.417     224.965
  H      -75.457      54.710     225.201
  H      -75.034      54.893     222.448
  H      -82.668      59.457     223.192
  H      -76.851      53.129     222.105
  H      -83.301      57.945     222.605
  H      -75.625      52.730     223.331
  P      -73.143      56.111     224.758
  C      -72.089      55.593     227.055
  O      -72.957      56.446     226.314
  O      -72.118      56.747     223.873
  O      -73.013      54.514     224.702
  H      -72.095      54.278     224.468
  H      -72.051      55.920     228.073
  H      -71.107      55.629     226.632
  H      -72.457      54.589     227.017

 6  7  8  9  10  11  12  13  14  15  16  26  30  31  32  33  35 0
 6-311+G(2d,p)
 ****
 37  38 0
 6-311+G(2d,p)
 ****
 1  2  3  4  5  17  18  19  20  21  22  23  24  25 0
 3-21G
 ****
 27  28  29  34  36  39  40  41  42  43  44  45  46 0
 3-21G
 ****


