%nproc=1
%NoSave
%Mem=1900MB
#P OB98/GEN NMR

erre ene a

0 1
  C       14.127      35.050     299.368
  O       13.084      35.929     298.993
  H       14.405      34.443     298.502
  H       13.785      34.388     300.168
  H       15.003      35.615     299.700
  P       12.693      37.063     300.053
  C       14.417      38.959     299.496
  O       14.028      37.905     300.366
  C       15.305      39.951     300.241
  O       14.573      40.600     301.300
  C       16.485      39.317     300.957
  O       17.495      38.891     300.070
  C       16.916      40.464     301.862
  O       17.777      41.383     301.178
  C       15.565      41.134     302.209
  N       15.206      40.934     303.600
  C       15.668      41.917     304.486
  O       16.311      42.877     304.061
  N       15.419      41.764     305.824
  C       14.793      40.710     306.247
  N       14.607      40.604     307.590
  C       14.291      39.651     305.348
  C       14.531      39.824     304.049
  O       12.471      36.220     301.394
  O       11.529      37.910     299.664
  H       17.887      42.152     301.775
  H       13.191      35.599     301.590
  H       13.762      38.799     305.749
  H       14.199      39.096     303.319
  H       15.612      42.214     302.019
  H       17.465      40.103     302.735
  H       16.141      38.491     301.595
  H       15.636      40.716     299.527
  H       15.016      41.325     308.174
  H       13.537      39.468     299.091
  H       14.205      39.794     308.039
  H       14.960      38.515     298.657
  P       18.771      38.077     300.590
  C       19.105      35.873     299.299
  O       18.441      36.517     300.381
  O       19.237      38.426     301.963
  O       19.860      38.341     299.445
  H       19.601      38.042     298.557
  H       18.809      34.846     299.259
  H       20.163      35.934     299.443
  H       18.842      36.356     298.381

 6  7  8  9  10  11  12  13  14  15  16  26  30  31  32  33  35 0
 6-311+G(2d,p)
 ****
 37  38 0
 6-311+G(2d,p)
 ****
 1  2  3  4  5  17  18  19  20  21  22  23  24  25 0
 3-21G
 ****
 27  28  29  34  36  39  40  41  42  43  44  45  46 0
 3-21G
 ****


