%nproc=1
%NoSave
%Mem=1900MB
#P OB98/GEN NMR

erre ene a

0 1
  C     -162.198    -350.663    -430.354
  O     -162.203    -352.097    -430.408
  P     -163.527    -352.816    -429.838
  C     -162.168    -353.859    -427.877
  O     -163.304    -353.091    -428.268
  C     -162.246    -354.203    -426.384
  O     -162.101    -353.055    -425.539
  C     -163.573    -354.849    -425.988
  O     -163.561    -356.219    -426.343
  C     -163.584    -354.626    -424.477
  O     -162.824    -355.647    -423.791
  C     -162.883    -353.263    -424.334
  N     -166.223    -351.082    -421.192
  C     -165.620    -352.326    -421.121
  N     -165.914    -353.079    -420.045
  N     -164.784    -352.780    -422.016
  C     -164.569    -351.924    -423.042
  C     -165.093    -350.651    -423.210
  C     -166.020    -350.166    -422.213
  O     -166.564    -349.068    -422.217
  N     -164.597    -350.050    -424.350
  C     -163.873    -350.999    -424.913
  N     -163.772    -352.132    -424.136
  O     -163.465    -354.273    -430.496
  O     -164.792    -352.103    -430.183
  H     -163.383    -356.438    -423.683
  H     -164.168    -354.367    -431.167
  H     -166.871    -350.796    -420.484
  H     -163.387    -350.916    -425.876
  H     -162.187    -353.252    -423.483
  H     -164.588    -354.659    -424.069
  H     -166.553    -352.794    -419.304
  H     -164.406    -354.316    -426.448
  H     -165.470    -353.995    -419.962
  H     -161.411    -354.901    -426.161
  H     -161.253    -353.295    -428.075
  H     -162.120    -354.756    -428.490
  P     -163.888    -356.602    -427.872
  C     -166.419    -357.171    -427.886
  O     -165.421    -356.209    -428.147
  O     -163.888    -358.199    -427.861
  O     -162.908    -356.065    -428.858
  H     -163.402    -358.533    -428.632
  H     -167.346    -356.645    -427.617
  H     -166.139    -357.840    -427.075
  H     -166.601    -357.765    -428.790
  H     -161.277    -350.294    -430.756
  H     -162.297    -350.344    -429.337
  H     -163.016    -350.282    -430.929

 3  4  5  6  7  8  9  10  11  12  23  26  30  31 0
 6-311+G(2d,p)
 ****
 33  35  36  37  38 0
 6-311+G(2d,p)
 ****
 1  2  13  14  15  16  17  18  19  20  21  22  24  25 0
 3-21G
 ****
 27  28  29  32  34  39  40  41  42  43  44  45  46  47  48  49 0
 3-21G
 ****


