%nproc=1
%NoSave
%Mem=1900MB
#P OB98/GEN NMR

erre ene a

0 1
  C      333.727     135.592     479.285
  O      333.935     134.258     479.712
  H      334.581     136.193     479.596
  H      332.827     136.001     479.753
  H      333.638     135.642     478.196
  P      332.860     133.137     479.294
  C      333.258     131.734     481.411
  O      333.333     131.767     479.995
  C      333.010     130.310     481.895
  O      331.729     129.855     481.392
  C      334.070     129.298     481.434
  O      334.305     128.369     482.496
  C      333.415     128.596     480.267
  O      333.922     127.280     480.070
  C      331.941     128.618     480.680
  N      330.670     125.787     476.697
  C      331.555     125.534     477.722
  N      332.231     124.356     477.667
  N      331.770     126.353     478.710
  C      331.023     127.481     478.646
  C      330.110     127.843     477.683
  C      329.891     126.938     476.588
  O      329.126     127.107     475.641
  N      329.572     129.085     477.951
  C      330.158     129.458     479.075
  N      331.055     128.533     479.531
  O      332.592     133.019     477.829
  O      331.548     133.539     480.111
  H      333.397     126.867     479.356
  H      330.915     134.008     479.536
  H      330.548     125.115     475.951
  H      329.977     130.404     479.586
  H      331.672     127.787     481.348
  H      333.574     129.166     479.345
  H      332.101     123.671     476.943
  H      335.020     129.776     481.150
  H      332.874     124.147     478.427
  H      332.934     130.317     482.997
  H      332.429     132.379     481.729
  H      334.196     132.115     481.841
  P      335.693     128.432     483.291
  C      336.553     126.050     483.775
  O      335.779     127.141     484.251
  O      336.002     129.742     483.951
  O      336.780     128.088     482.156
  H      337.614     128.539     482.376
  H      336.534     125.258     484.495
  H      337.563     126.369     483.622
  H      336.145     125.700     482.850

 6  7  8  9  10  11  12  13  14  15  26  29  33  34 0
 6-311+G(2d,p)
 ****
 36  38  39  40  41 0
 6-311+G(2d,p)
 ****
 1  2  3  4  5  16  17  18  19  20  21  22  23  24  25 0
 3-21G
 ****
 27  28  30  31  32  35  37  42  43  44  45  46  47 0
 3-21G
 ****
 48  49 0
 3-21G
 ****


