%nproc=1
%NoSave
%Mem=1900MB
#P OB98/GEN NMR

erre ene a

0 1
  C     -191.161     314.522     474.725
  O     -191.950     315.715     474.743
  P     -191.675     316.823     475.863
  C     -194.061     316.562     476.832
  O     -193.069     317.455     476.337
  C     -195.316     317.339     477.237
  O     -195.044     318.254     478.324
  C     -195.855     318.220     476.117
  O     -196.430     317.560     475.007
  C     -196.732     319.203     476.873
  O     -198.025     318.661     477.135
  C     -195.939     319.381     478.188
  N     -195.207     320.649     478.240
  C     -195.928     321.748     478.689
  O     -197.120     321.704     478.988
  N     -195.234     322.929     478.749
  C     -193.935     323.117     478.379
  O     -193.370     324.201     478.431
  C     -193.233     321.920     477.892
  C     -193.889     320.758     477.842
  O     -190.600     317.810     475.549
  O     -191.255     315.936     477.138
  H     -198.535     319.344     477.616
  H     -190.515     316.390     477.586
  H     -195.738     323.738     479.081
  H     -192.203     322.031     477.581
  H     -193.392     319.863     477.487
  H     -196.613     319.348     479.050
  H     -196.884     320.128     476.305
  H     -195.011     318.796     475.710
  H     -196.069     316.628     477.585
  H     -193.664     316.008     477.686
  H     -194.286     315.816     476.058
  P     -195.627     317.256     473.655
  C     -196.398     319.511     472.625
  O     -196.289     318.110     472.472
  O     -195.291     315.832     473.361
  O     -194.257     318.063     473.910
  H     -193.528     317.578     473.475
  H     -196.883     319.926     471.740
  H     -195.406     319.964     472.725
  H     -197.005     319.750     473.501
  H     -191.478     313.897     473.916
  H     -191.285     313.999     475.650
  H     -190.130     314.778     474.595

 3  4  5  6  7  8  9  10  11  12  13  23  28  29  30  31  32 0
 6-311+G(2d,p)
 ****
 33  34 0
 6-311+G(2d,p)
 ****
 1  2  14  15  16  17  18  19  20  21  22  24  25  26  27 0
 3-21G
 ****
 35  36  37  38  39  40  41  42  43  44  45 0
 3-21G
 ****


