%nproc=1
%NoSave
%Mem=1900MB
#P OB98/GEN NMR

erre ene a

0 1
  C     -255.558     181.331       7.338
  O     -256.906     181.324       6.870
  P     -257.946     180.368       7.625
  C     -258.989     179.026       5.627
  O     -258.120     179.038       6.743
  C     -260.281     178.241       5.940
  O     -259.979     176.823       5.870
  C     -260.859     178.466       7.331
  O     -262.224     178.040       7.334
  C     -260.031     177.516       8.167
  O     -260.650     177.241       9.423
  C     -259.862     176.302       7.224
  N     -258.571     175.600       7.387
  C     -258.580     174.302       7.893
  O     -259.607     173.702       8.216
  N     -257.361     173.709       8.062
  C     -256.155     174.256       7.741
  O     -255.084     173.716       7.995
  C     -256.208     175.567       7.082
  C     -257.390     176.175       6.948
  O     -259.343     181.131       7.466
  O     -257.604     180.114       9.058
  H     -261.499     176.789       9.221
  H     -259.596     181.548       8.311
  H     -257.350     172.795       8.487
  H     -255.273     176.007       6.753
  H     -257.442     177.156       6.483
  H     -260.660     175.568       7.384
  H     -259.056     177.966       8.381
  H     -260.790     179.496       7.691
  H     -261.028     178.456       5.166
  H     -258.483     178.593       4.762
  H     -259.252     180.057       5.351
  P     -263.364     179.168       7.381
  C     -263.691     178.871       9.915
  O     -263.351     179.764       8.869
  O     -264.704     178.768       6.855
  O     -262.722     180.357       6.521
  H     -263.425     180.967       6.224
  H     -263.172     179.182      10.825
  H     -263.402     177.841       9.672
  H     -264.770     178.914      10.087
  H     -254.979     182.009       6.747
  H     -255.147     180.346       7.257
  H     -255.537     181.643       8.361

 3  4  5  6  7  8  9  10  11  12  13  23  28  29  30  31  32 0
 6-311+G(2d,p)
 ****
 33  34 0
 6-311+G(2d,p)
 ****
 1  2  14  15  16  17  18  19  20  21  22  24  25  26  27 0
 3-21G
 ****
 35  36  37  38  39  40  41  42  43  44  45 0
 3-21G
 ****


