%nproc=1
%NoSave
%Mem=1900MB
#P OB98/GEN NMR

erre ene a

0 1
  C       19.050      49.067     -58.922
  O       19.949      50.175     -58.975
  P       21.375      49.979     -59.679
  C       22.148      49.227     -62.018
  O       21.145      49.898     -61.264
  C       21.826      49.274     -63.512
  O       20.553      48.664     -63.803
  C       21.731      50.687     -64.061
  O       23.017      51.267     -64.196
  C       20.985      50.452     -65.366
  O       21.883      50.024     -66.403
  C       20.027      49.300     -64.988
  N       18.653      49.736     -64.795
  C       18.075      50.434     -65.860
  O       18.733      50.683     -66.870
  N       16.770      50.846     -65.745
  C       16.106      50.589     -64.660
  N       14.817      51.017     -64.603
  C       16.683      49.867     -63.510
  C       17.950      49.480     -63.641
  O       22.237      48.904     -59.105
  O       22.058      51.422     -59.503
  H       22.319      49.218     -66.065
  H       23.026      51.306     -59.446
  H       16.087      49.672     -62.631
  H       18.453      48.946     -62.843
  H       20.027      48.534     -65.775
  H       20.491      51.360     -65.721
  H       21.117      51.303     -63.391
  H       22.609      48.719     -64.047
  H       14.449      51.521     -65.400
  H       22.219      48.188     -61.686
  H       14.205      50.823     -63.824
  H       23.117      49.692     -61.808
  P       23.606      52.072     -62.942
  C       25.496      51.700     -61.209
  O       24.694      51.140     -62.229
  O       22.382      52.069     -61.907
  O       24.051      53.466     -63.245
  H       22.385      52.898     -61.395
  H       25.941      50.886     -60.628
  H       24.907      52.329     -60.537
  H       26.299      52.291     -61.656
  H       18.150      49.361     -58.424
  H       19.508      48.262     -58.386
  H       18.819      48.748     -59.917

 3  4  5  6  7  8  9  10  11  12  13  23  27  28  29  30  32 0
 6-311+G(2d,p)
 ****
 34  35 0
 6-311+G(2d,p)
 ****
 1  2  14  15  16  17  18  19  20  21  22  24  25  26 0
 3-21G
 ****
 31  33  36  37  38  39  40  41  42  43  44  45  46 0
 3-21G
 ****


