%nproc=1
%NoSave
%Mem=1900MB
#P OB98/GEN NMR

erre ene a

0 1
  C     -571.703    -229.334    -417.150
  O     -571.003    -229.982    -416.105
  H     -571.026    -228.687    -417.712
  H     -572.107    -230.093    -417.827
  H     -572.533    -228.751    -416.741
  P     -570.337    -229.043    -414.987
  C     -572.091    -229.544    -413.133
  O     -570.747    -229.686    -413.574
  C     -572.517    -230.788    -412.366
  O     -572.418    -231.951    -413.214
  C     -571.658    -231.097    -411.144
  O     -572.033    -230.321    -410.020
  C     -571.990    -232.563    -410.935
  O     -573.282    -232.687    -410.314
  C     -572.038    -233.083    -412.378
  N     -568.802    -237.042    -412.114
  C     -569.977    -236.796    -411.505
  N     -570.782    -235.716    -411.622
  C     -570.252    -234.829    -412.481
  C     -569.055    -234.933    -413.172
  C     -568.315    -236.109    -412.968
  N     -567.103    -236.355    -413.576
  N     -568.826    -233.802    -413.928
  C     -569.882    -233.041    -413.724
  N     -570.768    -233.612    -412.848
  O     -571.220    -227.706    -415.046
  O     -568.878    -228.775    -415.151
  H     -573.577    -233.607    -410.470
  H     -570.721    -226.961    -414.657
  H     -570.330    -237.572    -410.827
  H     -570.056    -232.076    -414.185
  H     -572.792    -233.867    -412.517
  H     -571.269    -233.078    -410.291
  H     -570.587    -230.996    -411.364
  H     -573.572    -230.672    -412.084
  H     -572.740    -229.413    -414.008
  H     -566.572    -237.133    -413.224
  H     -566.662    -235.605    -414.089
  H     -572.168    -228.656    -412.494
  P     -570.992    -230.233    -408.802
  C     -569.670    -228.211    -409.768
  O     -570.518    -228.706    -408.734
  O     -569.702    -230.994    -409.367
  O     -571.476    -230.819    -407.519
  H     -569.171    -231.373    -408.644
  H     -569.443    -227.182    -409.581
  H     -570.167    -228.301    -410.711
  H     -568.763    -228.778    -409.788

 6  7  8  9  10  11  12  13  14  15  25  28  32  33  34  35 0
 6-311+G(2d,p)
 ****
 36  39  40 0
 6-311+G(2d,p)
 ****
 1  2  3  4  5  16  17  18  19  20  21  22  23  24 0
 3-21G
 ****
 26  27  29  30  31  37  38  41  42  43  44  45  46  47 0
 3-21G
 ****
 48 0
 3-21G
 ****


