%nproc=1
%NoSave
%Mem=1900MB
#P OB98/GEN NMR

erre ene a

0 1
  C      302.274    -161.844     331.508
  O      303.635    -161.632     331.823
  H      301.913    -160.997     330.920
  H      301.678    -161.917     332.422
  H      302.163    -162.757     330.918
  P      304.336    -162.716     332.775
  C      304.013    -163.411     335.257
  O      303.859    -162.398     334.271
  C      304.755    -162.838     336.462
  O      303.935    -161.837     337.113
  C      305.070    -163.863     337.542
  O      306.197    -164.664     337.229
  C      305.317    -162.958     338.735
  O      306.666    -162.473     338.763
  C      304.315    -161.813     338.503
  N      303.161    -161.917     339.391
  C      303.430    -161.784     340.750
  O      304.559    -161.589     341.200
  N      302.357    -161.921     341.586
  C      301.080    -162.221     341.209
  O      300.175    -162.385     342.016
  C      300.857    -162.366     339.761
  C      301.893    -162.213     338.930
  O      305.874    -162.272     332.761
  O      304.159    -164.136     332.349
  H      306.392    -162.897     332.221
  H      306.732    -161.903     339.555
  H      302.530    -161.826     342.575
  H      299.856    -162.606     339.428
  H      301.757    -162.328     337.861
  H      304.796    -160.843     338.680
  H      305.148    -163.490     339.669
  H      304.189    -164.486     337.743
  H      305.675    -162.356     336.108
  H      304.595    -164.241     334.847
  H      303.023    -163.781     335.545
  P      306.409    -166.018     338.060
  C      306.520    -166.526     340.640
  O      306.543    -165.570     339.594
  O      307.894    -166.407     337.615
  O      305.372    -167.051     337.776
  H      308.415    -165.623     337.363
  H      306.622    -166.027     341.581
  H      307.329    -167.215     340.511
  H      305.592    -167.057     340.617

 6  7  8  9  10  11  12  13  14  15  16  27  31  32  33  34  35 0
 6-311+G(2d,p)
 ****
 36  37 0
 6-311+G(2d,p)
 ****
 1  2  3  4  5  17  18  19  20  21  22  23  24  25 0
 3-21G
 ****
 26  28  29  30  38  39  40  41  42  43  44  45 0
 3-21G
 ****


