%nproc=1
%NoSave
%Mem=1900MB
#P OB98/GEN NMR

erre ene a

0 1
  C      -90.387     316.848     218.435
  O      -91.060     315.644     218.136
  H      -91.067     317.507     218.982
  H      -90.089     317.350     217.510
  H      -89.507     316.657     219.056
  P      -90.201     314.463     217.471
  C      -91.382     312.708     218.979
  O      -91.054     313.114     217.658
  C      -92.301     311.488     218.950
  O      -93.498     311.822     218.198
  C      -91.666     310.257     218.298
  O      -92.085     309.093     219.020
  C      -92.271     310.231     216.907
  O      -92.282     308.923     216.335
  C      -93.660     310.832     217.162
  N      -94.225     311.410     215.945
  C      -95.252     310.694     215.326
  O      -95.638     309.624     215.808
  N      -95.784     311.168     214.158
  C      -95.272     312.221     213.599
  N      -95.823     312.627     212.425
  C      -94.141     312.974     214.178
  C      -93.674     312.521     215.345
  O      -88.984     314.270     218.491
  O      -89.740     314.715     216.076
  H      -92.977     308.397     216.784
  H      -88.174     313.985     218.026
  H      -93.732     313.830     213.666
  H      -92.844     313.002     215.839
  H      -94.349     310.067     217.539
  H      -91.691     310.885     216.244
  H      -90.573     310.295     218.272
  H      -92.621     311.267     219.975
  H      -96.587     312.075     212.050
  H      -91.900     313.532     219.486
  H      -95.479     313.404     211.880
  H      -90.461     312.483     219.530
  P      -91.028     308.468     220.057
  C      -92.833     308.391     221.925
  O      -91.845     307.682     221.188
  O      -90.459     309.756     220.819
  O      -89.937     307.687     219.402
  H      -89.540     309.929     220.542
  H      -93.287     307.734     222.637
  H      -93.580     308.762     221.255
  H      -92.375     309.211     222.438

 6  7  8  9  10  11  12  13  14  15  16  26  30  31  32  33  35 0
 6-311+G(2d,p)
 ****
 37  38 0
 6-311+G(2d,p)
 ****
 1  2  3  4  5  17  18  19  20  21  22  23  24  25 0
 3-21G
 ****
 27  28  29  34  36  39  40  41  42  43  44  45  46 0
 3-21G
 ****


