%nproc=1
%NoSave
%Mem=1900MB
#P OB98/GEN NMR

erre ene a

0 1
  C     -141.682     183.344     209.033
  O     -142.384     183.510     207.817
  H     -141.800     184.249     209.634
  H     -140.619     183.203     208.820
  H     -142.067     182.490     209.596
  P     -142.684     182.190     206.956
  C     -140.935     182.934     205.184
  O     -141.370     181.912     206.069
  C     -139.422     182.871     205.000
  O     -139.062     181.530     204.547
  C     -138.871     183.872     203.969
  O     -137.594     184.347     204.420
  C     -138.646     183.005     202.742
  O     -137.681     183.558     201.857
  C     -138.212     181.696     203.397
  N     -135.758     179.302     199.730
  C     -135.328     180.272     200.613
  N     -134.065     180.725     200.463
  N     -136.075     180.764     201.564
  C     -137.314     180.213     201.616
  C     -137.861     179.251     200.804
  C     -137.029     178.727     199.739
  O     -137.359     177.881     198.914
  N     -139.169     179.006     201.144
  C     -139.413     179.828     202.150
  N     -138.320     180.582     202.472
  O     -143.758     182.706     205.887
  O     -143.190     181.020     207.734
  H     -136.900     183.824     202.384
  H     -144.660     182.518     206.207
  H     -135.149     178.969     199.005
  H     -140.362     179.929     202.659
  H     -137.170     181.724     203.743
  H     -139.589     182.878     202.195
  H     -133.420     180.373     199.773
  H     -139.532     184.723     203.774
  H     -133.722     181.409     201.128
  H     -138.940     183.019     205.975
  H     -141.204     183.911     205.604
  H     -141.443     182.817     204.220
  P     -137.548     185.725     205.238
  C     -136.004     186.975     203.557
  O     -137.268     186.922     204.212
  O     -136.179     185.612     206.062
  O     -138.719     185.927     206.149
  H     -136.280     186.047     206.931
  H     -135.973     187.826     202.909
  H     -135.863     186.084     202.982
  H     -135.227     187.055     204.288

 6  7  8  9  10  11  12  13  14  15  26  29  33  34 0
 6-311+G(2d,p)
 ****
 36  38  39  40  41 0
 6-311+G(2d,p)
 ****
 1  2  3  4  5  16  17  18  19  20  21  22  23  24  25 0
 3-21G
 ****
 27  28  30  31  32  35  37  42  43  44  45  46  47 0
 3-21G
 ****
 48  49 0
 3-21G
 ****


