%nproc=1
%NoSave
%Mem=1900MB
#P OB98/GEN NMR

erre ene a

0 1
  C     -202.911     -37.702     817.051
  O     -202.712     -36.294     817.307
  P     -201.501     -35.742     818.190
  C     -201.169     -33.477     819.406
  O     -202.045     -34.588     819.175
  C     -201.946     -32.198     819.725
  O     -202.702     -31.745     818.568
  C     -202.990     -32.352     820.834
  O     -202.359     -32.367     822.115
  C     -203.869     -31.128     820.571
  O     -203.289     -29.937     821.161
  C     -203.846     -31.049     819.035
  N     -205.085     -31.572     818.439
  C     -206.244     -30.818     818.618
  O     -206.203     -29.782     819.317
  N     -207.413     -31.247     818.048
  C     -207.434     -32.383     817.412
  N     -208.617     -32.771     816.847
  C     -206.249     -33.265     817.279
  C     -205.135     -32.801     817.803
  O     -200.294     -35.338     817.402
  O     -201.146     -36.943     819.203
  H     -203.271     -30.081     822.132
  H     -200.199     -36.897     819.418
  H     -206.326     -34.210     816.764
  H     -204.212     -33.376     817.746
  H     -203.727     -30.004     818.706
  H     -204.876     -31.234     820.997
  H     -203.580     -33.266     820.681
  H     -201.223     -31.407     819.982
  H     -209.413     -32.135     816.961
  H     -200.571     -33.320     818.484
  H     -208.749     -33.634     816.338
  H     -200.495     -33.734     820.229
  P     -202.241     -33.763     822.906
  C     -200.972     -34.619     824.981
  O     -201.360     -33.495     824.221
  O     -201.813     -34.935     822.094
  O     -203.705     -33.985     823.520
  H     -203.890     -34.947     823.566
  H     -200.090     -34.388     825.567
  H     -200.754     -35.487     824.320
  H     -201.801     -34.917     825.655
  H     -203.779     -37.834     816.440
  H     -203.046     -38.218     817.979
  H     -202.055     -38.097     816.545

 3  4  5  6  7  8  9  10  11  12  13  23  27  28  29  30  32 0
 6-311+G(2d,p)
 ****
 34  35 0
 6-311+G(2d,p)
 ****
 1  2  14  15  16  17  18  19  20  21  22  24  25  26 0
 3-21G
 ****
 31  33  36  37  38  39  40  41  42  43  44  45  46 0
 3-21G
 ****


