%nproc=1
%NoSave
%Mem=1900MB
#P OB98/GEN NMR

erre ene a

0 1
  C     -160.361     301.159      35.084
  O     -159.375     300.852      36.052
  H     -160.590     302.228      35.143
  H     -161.278     300.593      35.285
  H     -159.990     300.929      34.081
  P     -158.886     299.323      36.112
  C     -161.040     298.583      37.340
  O     -160.246     298.473      36.168
  C     -161.507     297.202      37.800
  O     -162.050     297.265      39.134
  C     -162.608     296.590      36.935
  O     -162.064     296.002      35.767
  C     -163.166     295.542      37.886
  O     -162.316     294.381      37.886
  C     -163.081     296.252      39.255
  N     -167.861     295.494      40.971
  C     -166.946     294.638      40.458
  N     -165.713     294.920      39.981
  C     -165.455     296.235      40.070
  C     -166.287     297.218      40.572
  C     -167.550     296.804      41.046
  N     -168.477     297.673      41.576
  N     -165.686     298.459      40.498
  C     -164.487     298.217      40.017
  N     -164.306     296.888      39.706
  O     -157.864     299.014      37.153
  O     -158.404     299.098      34.602
  H     -161.421     294.668      38.141
  H     -159.003     299.551      33.979
  H     -167.241     293.595      40.426
  H     -163.702     298.957      39.882
  H     -162.781     295.562      40.054
  H     -164.165     295.202      37.595
  H     -163.389     297.320      36.707
  H     -160.628     296.543      37.832
  H     -161.907     299.225      37.155
  H     -169.406     297.327      41.733
  H     -168.286     298.667      41.519
  H     -160.422     299.047      38.114
  P     -163.019     295.366      34.644
  C     -161.742     293.130      34.568
  O     -162.981     293.776      34.860
  O     -162.742     295.812      33.250
  O     -164.498     295.758      35.115
  H     -165.049     295.977      34.341
  H     -161.836     292.079      34.748
  H     -160.974     293.532      35.195
  H     -161.487     293.295      33.542

 6  7  8  9  10  11  12  13  14  15  25  28  32  33  34  35 0
 6-311+G(2d,p)
 ****
 36  39  40 0
 6-311+G(2d,p)
 ****
 1  2  3  4  5  16  17  18  19  20  21  22  23  24 0
 3-21G
 ****
 26  27  29  30  31  37  38  41  42  43  44  45  46  47 0
 3-21G
 ****
 48 0
 3-21G
 ****


