%nproc=1
%NoSave
%Mem=1900MB
#P OB98/GEN NMR

erre ene a

0 1
  C       64.652     757.310    -436.060
  O       63.726     756.343    -435.614
  H       64.192     758.299    -435.968
  H       64.900     757.144    -437.112
  H       65.556     757.286    -435.452
  P       64.119     754.791    -435.678
  C       63.782     754.703    -433.133
  O       64.678     754.433    -434.208
  C       64.351     754.190    -431.807
  O       64.464     752.743    -431.852
  C       65.744     754.749    -431.470
  O       65.775     755.190    -430.114
  C       66.661     753.549    -431.637
  O       67.862     753.653    -430.880
  C       65.722     752.411    -431.240
  N       66.227     751.108    -431.653
  C       66.238     750.106    -430.674
  O       65.829     750.350    -429.532
  N       66.760     748.883    -430.993
  C       67.274     748.680    -432.171
  N       67.799     747.449    -432.402
  C       67.300     749.708    -433.225
  C       66.758     750.890    -432.899
  O       65.024     754.422    -436.804
  O       62.717     754.015    -435.720
  H       68.314     754.495    -431.123
  H       62.861     753.116    -436.103
  H       67.743     749.507    -434.185
  H       66.732     751.710    -433.612
  H       65.571     752.390    -430.140
  H       66.941     753.442    -432.691
  H       66.040     755.571    -432.118
  H       63.630     754.409    -431.012
  H       67.768     746.775    -431.652
  H       62.822     754.227    -433.342
  H       68.240     747.188    -433.273
  H       63.642     755.789    -433.062
  P       66.934     756.235    -429.739
  C       65.363     758.181    -429.039
  O       66.356     757.722    -429.939
  O       67.994     756.055    -430.931
  O       67.556     755.974    -428.394
  H       68.801     755.624    -430.576
  H       65.081     759.180    -429.299
  H       65.752     758.168    -428.042
  H       64.507     757.542    -429.097

 6  7  8  9  10  11  12  13  14  15  16  26  30  31  32  33  35 0
 6-311+G(2d,p)
 ****
 37  38 0
 6-311+G(2d,p)
 ****
 1  2  3  4  5  17  18  19  20  21  22  23  24  25 0
 3-21G
 ****
 27  28  29  34  36  39  40  41  42  43  44  45  46 0
 3-21G
 ****


