%nproc=1
%NoSave
%Mem=1900MB
#P OB98/GEN NMR

erre ene a

0 1
  C      412.602      58.951     668.737
  O      413.389      58.461     667.662
  P      414.322      59.503     666.876
  C      412.308      60.836     665.869
  O      413.472      60.051     665.636
  C      411.746      61.335     664.537
  O      412.586      62.369     663.985
  C      411.669      60.261     663.463
  O      410.547      59.411     663.653
  C      411.589      61.093     662.195
  O      410.240      61.513     661.940
  C      412.488      62.292     662.552
  N      413.794      62.226     661.916
  C      413.821      62.411     660.538
  O      412.802      62.603     659.874
  N      415.049      62.345     659.945
  C      416.228      62.054     660.562
  O      417.289      61.943     659.967
  C      416.143      61.831     662.016
  C      414.952      61.927     662.615
  O      415.444      58.591     666.203
  O      414.910      60.579     667.731
  H      409.896      61.896     662.773
  H      416.300      59.062     666.193
  H      415.086      62.502     658.946
  H      417.061      61.593     662.546
  H      414.860      61.752     663.689
  H      412.006      63.229     662.236
  H      411.922      60.531     661.312
  H      412.596      59.666     663.455
  H      410.749      61.760     664.721
  H      412.572      61.686     666.503
  H      411.569      60.227     666.395
  P      410.834      57.943     664.250
  C      411.814      57.008     662.013
  O      410.785      56.967     662.979
  O      409.460      57.671     665.044
  O      412.059      57.884     665.103
  H      408.693      58.093     664.604
  H      412.789      57.230     662.471
  H      411.582      57.781     661.282
  H      411.870      56.048     661.513
  H      412.037      58.147     669.161
  H      411.934      59.705     668.375
  H      413.242      59.371     669.485

 3  4  5  6  7  8  9  10  11  12  13  23  28  29  30  31  32 0
 6-311+G(2d,p)
 ****
 33  34 0
 6-311+G(2d,p)
 ****
 1  2  14  15  16  17  18  19  20  21  22  24  25  26 0
 3-21G
 ****
 27  35  36  37  38  39  40  41  42  43  44  45 0
 3-21G
 ****


