%nproc=1
%NoSave
%Mem=1900MB
#P OB98/GEN NMR

erre ene a

0 1
  C       37.199     177.251     -30.086
  O       37.077     176.728     -28.760
  P       36.730     175.162     -28.632
  C       37.741     174.874     -26.251
  O       36.579     174.832     -27.068
  C       37.410     174.455     -24.820
  O       36.602     175.448     -24.164
  C       36.612     173.163     -24.717
  O       37.442     172.020     -24.854
  C       36.068     173.266     -23.298
  O       37.063     172.822     -22.359
  C       35.820     174.775     -23.147
  N       31.223     174.802     -21.015
  C       32.422     174.324     -20.526
  N       32.397     173.803     -19.280
  N       33.543     174.354     -21.196
  C       33.425     174.930     -22.416
  C       32.294     175.439     -23.012
  C       31.052     175.371     -22.271
  O       29.957     175.750     -22.670
  N       32.568     175.950     -24.254
  C       33.866     175.778     -24.399
  N       34.430     175.149     -23.315
  O       38.112     174.457     -29.025
  O       35.605     174.717     -29.503
  H       36.619     172.734     -21.492
  H       37.942     173.568     -29.389
  H       30.388     174.747     -20.459
  H       34.443     176.091     -25.260
  H       36.162     175.149     -22.175
  H       35.182     172.644     -23.139
  H       31.586     173.814     -18.681
  H       35.782     173.156     -25.433
  H       33.275     173.481     -18.891
  H       38.355     174.356     -24.268
  H       38.155     175.884     -26.246
  H       38.504     174.220     -26.684
  P       37.657     171.445     -26.337
  C       39.567     169.860     -25.584
  O       38.275     169.980     -26.143
  O       38.882     172.313     -26.889
  O       36.458     171.543     -27.218
  H       38.828     172.395     -27.860
  H       39.695     170.533     -24.733
  H       40.320     170.081     -26.345
  H       39.706     168.831     -25.240
  H       37.430     178.295     -30.038
  H       36.276     177.113     -30.610
  H       37.982     176.736     -30.602

 3  4  5  6  7  8  9  10  11  12  23  26  30  31  33  0
 6-311+G(2d,p)
 ****
 35  36  37  38 0
 6-311+G(2d,p)
 ****
 1  2  13  14  15  16  17  18  19  20  21  22  24  25  27  28  29 0
 3-21G
 ****
 32  34  39  40  41  42  43  44  45  46  47  48  49 0
 3-21G
 ****


