%nproc=1
%NoSave
%Mem=1900MB
#P OB98/GEN NMR

erre ene a

0 1
  C     -164.876     240.633     381.284
  O     -163.835     241.430     380.767
  H     -164.676     240.448     382.345
  H     -164.911     239.669     380.771
  H     -165.839     241.144     381.195
  P     -163.850     241.828     379.209
  C     -165.366     243.872     379.556
  O     -165.257     242.577     378.974
  C     -164.869     244.956     378.597
  O     -165.765     245.034     377.450
  C     -164.789     246.354     379.224
  O     -163.537     246.962     378.896
  C     -165.918     247.115     378.542
  O     -165.711     248.524     378.536
  C     -165.933     246.436     377.164
  N     -167.160     246.713     376.431
  C     -167.286     248.004     375.905
  O     -166.384     248.833     376.056
  N     -168.446     248.343     375.254
  C     -169.418     247.485     375.190
  N     -170.555     247.896     374.560
  C     -169.338     246.122     375.760
  C     -168.194     245.806     376.360
  O     -163.573     240.696     378.276
  O     -162.788     243.021     379.080
  H     -165.783     248.860     379.459
  H     -162.484     243.076     378.143
  H     -170.182     245.451     375.681
  H     -168.042     244.834     376.809
  H     -165.078     246.768     376.558
  H     -166.859     246.916     379.067
  H     -164.911     246.346     380.308
  H     -163.892     244.643     378.199
  H     -170.571     248.840     374.194
  H     -164.783     243.888     380.485
  H     -171.384     247.323     374.469
  H     -166.418     244.056     379.787
  P     -162.889     247.903     380.031
  C     -161.436     246.052     381.127
  O     -162.500     246.975     381.284
  O     -164.143     248.762     380.558
  O     -161.800     248.784     379.518
  H     -164.050     249.690     380.269
  H     -161.296     245.510     382.039
  H     -160.538     246.581     380.885
  H     -161.671     245.368     380.338

 6  7  8  9  10  11  12  13  14  15  16  26  30  31  32  33  35 0
 6-311+G(2d,p)
 ****
 37  38 0
 6-311+G(2d,p)
 ****
 1  2  3  4  5  17  18  19  20  21  22  23  24  25 0
 3-21G
 ****
 27  28  29  34  36  39  40  41  42  43  44  45  46 0
 3-21G
 ****


