%nproc=1
%NoSave
%Mem=1900MB
#P OB98/GEN NMR

erre ene a

0 1
  C       70.434     383.044     459.512
  O       71.562     383.030     458.642
  P       72.141     384.391     458.041
  C       71.084     386.510     456.905
  O       70.963     385.156     457.293
  C       69.722     387.014     456.408
  O       68.799     387.136     457.516
  C       69.834     388.373     455.738
  O       69.976     388.236     454.328
  C       68.543     389.062     456.151
  O       67.456     388.638     455.307
  C       68.353     388.519     457.579
  N       69.079     389.174     458.684
  C       68.782     390.498     459.025
  O       67.901     391.151     458.475
  N       69.549     391.040     460.025
  C       70.536     390.405     460.716
  O       71.374     390.955     461.421
  C       70.625     388.948     460.504
  C       69.920     388.414     459.500
  O       73.075     383.880     456.832
  O       72.894     385.253     459.004
  H       67.725     388.822     454.386
  H       74.009     383.857     457.117
  H       69.430     392.044     460.174
  H       71.289     388.374     461.126
  H       69.997     387.358     459.292
  H       67.292     388.501     457.860
  H       68.619     390.140     456.036
  H       70.686     388.940     456.153
  H       69.311     386.278     455.701
  H       71.844     386.609     456.123
  H       71.422     387.118     457.763
  P       70.570     389.438     453.466
  C       70.139     391.971     453.541
  O       69.598     390.693     453.770
  O       70.798     389.153     452.018
  O       71.928     389.812     454.227
  H       72.690     389.386     453.774
  H       69.340     392.712     453.607
  H       70.592     392.027     452.538
  H       70.896     392.197     454.295
  H       70.199     382.043     459.807
  H       69.596     383.472     459.003
  H       70.660     383.628     460.380

 3  4  5  6  7  8  9  10  11  12  13  23  28  29  30  31  32 0
 6-311+G(2d,p)
 ****
 33  34 0
 6-311+G(2d,p)
 ****
 1  2  14  15  16  17  18  19  20  21  22  24  25  26  27 0
 3-21G
 ****
 35  36  37  38  39  40  41  42  43  44  45 0
 3-21G
 ****


