%nproc=1
%NoSave
%Mem=1900MB
#P OB98/GEN NMR

erre ene a

0 1
  C      103.365      48.482    -101.416
  O      103.365      47.265    -100.697
  H      103.702      49.295    -100.770
  H      104.056      48.391    -102.259
  H      102.365      48.701    -101.802
  P      102.285      47.123     -99.519
  C      101.150      45.198    -100.845
  O      101.727      45.619     -99.618
  C      101.124      43.671    -100.925
  O      102.476      43.192    -101.159
  C      100.608      43.000     -99.648
  O       99.814      41.869    -100.009
  C      101.878      42.540     -98.953
  O      101.646      41.443     -98.077
  C      102.774      42.215    -100.143
  N      106.550      39.726     -97.774
  C      105.276      39.379     -98.054
  N      104.333      40.100     -98.697
  C      104.837      41.278     -99.106
  C      106.113      41.771     -98.893
  C      106.993      40.940     -98.181
  N      108.281      41.301     -97.859
  N      106.240      43.036     -99.435
  C      105.061      43.298     -99.965
  N      104.181      42.268     -99.787
  O      101.067      48.013    -100.063
  O      102.737      47.559     -98.167
  H      102.508      41.153     -97.713
  H      101.256      48.956     -99.898
  H      104.970      38.394     -97.712
  H      104.793      44.213    -100.475
  H      102.581      41.216    -100.554
  H      102.295      43.365     -98.363
  H      100.019      43.675     -99.025
  H      100.530      43.375    -101.797
  H      101.744      45.597    -101.674
  H      108.825      40.666     -97.296
  H      108.609      42.224     -98.100
  H      100.129      45.588    -100.917
  P       98.389      41.727     -99.284
  C       96.936      41.801    -101.430
  O       97.361      41.040    -100.308
  O       97.872      43.238     -99.182
  O       98.465      41.084     -97.937
  H       97.578      43.429     -98.272
  H       96.258      41.219    -102.019
  H       97.786      42.067    -102.023
  H       96.444      42.689    -101.093

 6  7  8  9  10  11  12  13  14  15  25  28  32  33  34  35 0
 6-311+G(2d,p)
 ****
 36  39  40 0
 6-311+G(2d,p)
 ****
 1  2  3  4  5  16  17  18  19  20  21  22  23  24 0
 3-21G
 ****
 26  27  29  30  31  37  38  41  42  43  44  45  46  47 0
 3-21G
 ****
 48 0
 3-21G
 ****


