%nproc=1
%NoSave
%Mem=1900MB
#P OB98/GEN NMR

erre ene a

0 1
  C      240.732    -983.991    -321.598
  O      240.315    -985.125    -322.343
  P      241.175    -986.474    -322.187
  C      241.270    -986.501    -324.818
  O      241.079    -987.224    -323.605
  C      240.978    -987.400    -326.020
  O      241.927    -988.503    -326.065
  C      239.602    -988.058    -325.986
  O      238.569    -987.158    -326.356
  C      239.803    -989.222    -326.963
  O      239.693    -988.762    -328.324
  C      241.250    -989.647    -326.661
  N      241.352    -990.820    -325.791
  C      241.974    -991.939    -326.341
  O      242.423    -991.948    -327.497
  N      242.030    -993.048    -325.547
  C      241.487    -993.166    -324.294
  O      241.543    -994.198    -323.634
  C      240.809    -991.959    -323.781
  C      240.764    -990.857    -324.537
  O      240.220    -987.322    -321.221
  O      242.557    -986.243    -321.660
  H      239.280    -987.061    -321.315
  H      240.485    -988.192    -328.493
  H      242.510    -993.853    -325.910
  H      240.361    -992.029    -322.793
  H      240.267    -989.971    -324.171
  H      241.788    -989.854    -327.583
  H      239.062    -990.021    -326.828
  H      239.386    -988.462    -324.992
  H      241.101    -986.814    -326.935
  H      242.306    -986.170    -324.873
  H      240.613    -985.622    -324.832
  P      237.181    -987.255    -325.543
  C      236.166    -987.017    -327.949
  O      236.038    -986.761    -326.563
  O      237.333    -986.035    -324.513
  O      236.959    -988.594    -324.921
  H      237.703    -985.256    -324.915
  H      235.169    -986.938    -328.402
  H      236.563    -988.002    -328.141
  H      236.824    -986.259    -328.400
  H      240.074    -983.171    -321.797
  H      241.729    -983.725    -321.882
  H      240.708    -984.222    -320.553

 3  4  5  6  7  8  9  10  11  12  13  24  28  29  30  31  32 0
 6-311+G(2d,p)
 ****
 33  34 0
 6-311+G(2d,p)
 ****
 1  2  14  15  16  17  18  19  20  21  22  23  25  26  27 0
 3-21G
 ****
 35  36  37  38  39  40  41  42  43  44  45 0
 3-21G
 ****


