%nproc=1
%NoSave
%Mem=1900MB
#P OB98/GEN NMR

erre ene a

0 1
  C        0.804      34.751      21.379
  O       -0.459      34.118      21.330
  H        1.263      34.546      22.349
  H        0.692      35.832      21.264
  H        1.452      34.360      20.590
  P       -1.341      34.390      20.015
  C       -1.149      36.969      20.360
  O       -1.994      35.831      20.294
  C       -1.963      38.193      20.767
  O       -1.107      39.344      20.926
  C       -3.017      38.606      19.746
  O       -4.184      37.803      19.799
  C       -3.290      40.029      20.197
  O       -4.109      40.012      21.380
  C       -1.860      40.520      20.519
  N       -1.209      41.180      19.386
  C       -1.306      42.575      19.333
  O       -1.920      43.194      20.200
  N       -0.729      43.238      18.276
  C       -0.102      42.570      17.358
  N        0.437      43.276      16.327
  C        0.038      41.103      17.384
  C       -0.533      40.480      18.412
  O       -2.590      33.403      20.187
  O       -0.630      34.262      18.710
  H       -4.324      40.940      21.589
  H       -3.259      33.585      19.485
  H        0.560      40.589      16.590
  H       -0.473      39.400      18.496
  H       -1.865      41.212      21.370
  H       -3.817      40.623      19.448
  H       -2.607      38.634      18.731
  H       -2.417      37.986      21.746
  H        0.271      44.274      16.304
  H       -0.700      37.124      19.374
  H        0.781      42.833      15.485
  H       -0.353      36.803      21.093
  P       -4.677      37.114      18.434
  C       -6.727      38.703      18.307
  O       -6.259      37.362      18.328
  O       -4.572      35.553      18.760
  O       -3.888      37.488      17.218
  H       -4.252      35.051      17.987
  H       -7.795      38.707      18.234
  H       -6.310      39.213      17.464
  H       -6.429      39.199      19.207

 6  7  8  9  10  11  12  13  14  15  16  26  30  31  32  33  35 0
 6-311+G(2d,p)
 ****
 37  38 0
 6-311+G(2d,p)
 ****
 1  2  3  4  5  17  18  19  20  21  22  23  24  25 0
 3-21G
 ****
 27  28  29  34  36  39  40  41  42  43  44  45  46 0
 3-21G
 ****


