%nproc=1
%NoSave
%Mem=1900MB
#P OB98/GEN NMR

erre ene a

0 1
  C       98.750     723.550     747.018
  O       98.490     722.874     748.229
  H       98.276     724.532     747.062
  H       98.321     722.989     746.177
  H       99.824     723.677     746.863
  P       99.206     721.467     748.502
  C       99.975     720.199     750.614
  O       99.651     721.462     750.040
  C      100.825     720.392     751.867
  O      102.210     720.631     751.494
  C      100.422     721.597     752.699
  O       99.234     721.329     753.450
  C      101.681     721.789     753.544
  O      101.700     720.896     754.667
  C      102.787     721.444     752.529
  N      103.428     722.642     751.986
  C      104.463     723.180     752.718
  O      104.865     722.706     753.787
  N      105.005     724.346     752.234
  C      104.517     725.070     751.190
  O      104.860     726.214     750.935
  C      103.457     724.420     750.397
  C      102.955     723.257     750.834
  O      100.270     721.080     747.525
  O       97.994     720.414     748.483
  H       97.985     719.948     747.623
  H      102.176     720.104     754.361
  H      105.726     724.770     752.792
  H      103.083     724.936     749.504
  H      102.146     722.768     750.286
  H      103.564     720.816     753.012
  H      101.729     722.817     753.923
  H      100.271     722.469     752.065
  H      100.793     719.451     752.455
  H      100.540     719.609     749.869
  H       99.047     719.658     750.844
  P       98.411     722.531     754.104
  C       96.191     722.740     755.402
  O       96.919     722.009     754.420
  O       98.476     723.828     753.340
  O       99.031     722.702     755.563
  H       99.260     723.631     755.710
  H       95.222     722.304     755.526
  H       96.087     723.757     755.085
  H       96.718     722.709     756.333

 6  7  8  9  10  11  12  13  14  15  16  27  31  32  33  34  35 0
 6-311+G(2d,p)
 ****
 36  37 0
 6-311+G(2d,p)
 ****
 1  2  3  4  5  17  18  19  20  21  22  23  24  25 0
 3-21G
 ****
 26  28  29  30  38  39  40  41  42  43  44  45 0
 3-21G
 ****


