%nproc=1
%NoSave
%Mem=1900MB
#P OB98/GEN NMR

erre ene a

0 1
  C       21.921     320.385     183.509
  O       21.658     320.787     184.842
  P       22.745     321.691     185.599
  C       24.158     319.788     186.736
  O       23.229     320.848     186.877
  C       24.393     319.106     188.088
  O       25.188     319.990     188.927
  C       23.114     318.768     188.860
  O       23.351     317.541     189.560
  C       22.995     319.924     189.840
  O       22.193     319.605     190.968
  C       24.471     320.176     190.163
  N       24.727     321.508     190.710
  C       24.398     321.739     192.042
  O       23.887     320.897     192.777
  N       24.654     323.004     192.505
  C       25.129     324.051     191.770
  O       25.322     325.169     192.234
  C       25.413     323.759     190.358
  C       25.212     322.523     189.905
  O       21.819     322.836     186.217
  O       23.843     322.174     184.715
  H       20.946     322.511     186.500
  H       21.331     319.286     190.645
  H       24.458     323.184     193.478
  H       25.778     324.570     189.739
  H       25.412     322.285     188.867
  H       24.835     319.415     190.863
  H       22.543     320.782     189.333
  H       22.243     318.660     188.207
  H       24.988     318.201     187.915
  H       25.106     320.183     186.366
  H       23.779     319.072     185.998
  P       22.206     316.409     189.524
  C       21.549     316.659     192.046
  O       22.049     315.839     191.010
  O       22.993     315.231     188.771
  O       20.951     316.812     188.820
  H       23.873     315.067     189.145
  H       21.207     316.021     192.865
  H       20.709     317.267     191.703
  H       22.346     317.307     192.416
  H       21.107     319.792     183.148
  H       22.822     319.808     183.482
  H       22.033     321.251     182.891

 3  4  5  6  7  8  9  10  11  12  13  24  28  29  30  31  32 0
 6-311+G(2d,p)
 ****
 33  34 0
 6-311+G(2d,p)
 ****
 1  2  14  15  16  17  18  19  20  21  22  23  25  26  27 0
 3-21G
 ****
 35  36  37  38  39  40  41  42  43  44  45 0
 3-21G
 ****


