%nproc=1
%NoSave
%Mem=1900MB
#P OB98/GEN NMR

erre ene a

0 1
  C     -415.132    -314.534    -650.906
  O     -414.064    -313.646    -651.184
  H     -415.647    -314.775    -651.838
  H     -415.860    -314.071    -650.229
  H     -414.751    -315.458    -650.464
  P     -413.261    -313.016    -649.949
  C     -411.066    -313.830    -651.056
  O     -411.877    -313.821    -649.890
  C     -409.876    -312.893    -650.877
  O     -409.231    -313.140    -649.612
  C     -408.800    -313.084    -651.946
  O     -409.184    -312.500    -653.171
  C     -407.611    -312.435    -651.253
  O     -407.653    -311.007    -651.369
  C     -407.818    -312.880    -649.787
  N     -407.017    -314.060    -649.431
  C     -405.869    -313.809    -648.695
  O     -405.569    -312.659    -648.364
  N     -405.066    -314.875    -648.344
  C     -405.392    -316.079    -648.706
  N     -404.570    -317.090    -648.338
  C     -406.614    -316.376    -649.485
  C     -407.375    -315.335    -649.809
  O     -413.989    -312.927    -648.643
  O     -412.811    -311.576    -650.492
  H     -406.940    -310.672    -650.802
  H     -413.491    -310.905    -650.287
  H     -406.860    -317.397    -649.760
  H     -408.285    -315.469    -650.386
  H     -407.559    -312.070    -649.096
  H     -406.663    -312.777    -651.684
  H     -408.574    -314.151    -652.070
  H     -410.246    -311.857    -650.872
  H     -403.729    -316.832    -647.823
  H     -411.694    -313.498    -651.893
  H     -404.769    -318.066    -648.484
  H     -410.711    -314.845    -651.282
  P     -408.829    -313.207    -654.560
  C     -410.862    -314.793    -654.396
  O     -409.446    -314.694    -654.448
  O     -407.393    -313.144    -654.952
  O     -409.818    -312.501    -655.598
  H     -409.511    -311.575    -655.811
  H     -411.145    -315.822    -654.323
  H     -411.282    -314.370    -655.284
  H     -411.226    -314.262    -653.541

 6  7  8  9  10  11  12  13  14  15  16  26  30  31  32  33  35 0
 6-311+G(2d,p)
 ****
 37  38 0
 6-311+G(2d,p)
 ****
 1  2  3  4  5  17  18  19  20  21  22  23  24  25 0
 3-21G
 ****
 27  28  29  34  36  39  40  41  42  43  44  45  46 0
 3-21G
 ****


