%nproc=1
%NoSave
%Mem=1900MB
#P OB98/GEN NMR

erre ene a

0 1
  C      -52.533    1277.763    1544.882
  O      -53.897    1278.047    1544.643
  H      -52.007    1278.713    1545.030
  H      -52.106    1277.246    1544.035
  H      -52.433    1277.167    1545.788
  P      -54.855    1276.812    1544.303
  C      -54.256    1276.838    1541.768
  O      -55.277    1276.965    1542.767
  C      -54.935    1276.491    1540.425
  O      -55.432    1275.156    1540.453
  C      -56.105    1277.394    1540.058
  O      -55.701    1278.676    1539.557
  C      -56.809    1276.542    1539.021
  O      -56.221    1276.746    1537.701
  C      -56.545    1275.095    1539.509
  N      -57.741    1274.524    1540.113
  C      -58.811    1274.253    1539.281
  O      -58.743    1274.477    1538.057
  N      -59.950    1273.757    1539.815
  C      -60.146    1273.544    1541.151
  O      -61.230    1273.160    1541.624
  C      -59.021    1273.876    1542.068
  C      -57.868    1274.346    1541.497
  O      -56.210    1277.140    1545.105
  O      -54.313    1275.466    1544.671
  H      -56.275    1276.547    1545.881
  H      -56.721    1277.516    1537.313
  H      -60.699    1273.562    1539.215
  H      -59.140    1273.752    1543.113
  H      -57.035    1274.594    1542.142
  H      -56.244    1274.445    1538.682
  H      -57.856    1276.805    1538.931
  H      -56.774    1277.496    1540.940
  H      -54.138    1276.580    1539.629
  H      -53.566    1276.038    1542.026
  H      -53.715    1277.788    1541.704
  P      -56.031    1279.973    1540.476
  C      -58.392    1280.515    1539.414
  O      -57.005    1280.888    1539.599
  O      -54.605    1280.689    1540.410
  O      -56.476    1279.590    1541.848
  H      -54.114    1280.494    1539.566
  H      -58.879    1281.245    1538.802
  H      -58.878    1280.466    1540.366
  H      -58.444    1279.559    1538.937

 6  7  8  9  10  11  12  13  14  15  16  27  31  32  33  34  35 0
 6-311+G(2d,p)
 ****
 36  37 0
 6-311+G(2d,p)
 ****
 1  2  3  4  5  17  18  19  20  21  22  23  24  25 0
 3-21G
 ****
 26  28  29  30  38  39  40  41  42  43  44  45 0
 3-21G
 ****


