%nproc=1
%NoSave
%Mem=1900MB
#P OB98/GEN NMR

erre ene a

0 1
  C      -36.241      94.578     514.921
  O      -36.711      94.839     516.247
  P      -35.610      95.280     517.326
  C      -35.095      92.830     518.026
  O      -34.587      94.061     517.524
  C      -34.014      91.751     517.962
  O      -32.818      92.154     518.664
  C      -34.433      90.438     518.608
  O      -35.337      89.727     517.781
  C      -33.079      89.763     518.789
  O      -32.635      89.185     517.551
  C      -32.176      90.952     519.156
  N      -29.620      89.080     523.177
  C      -29.628      88.730     521.870
  N      -30.342      89.279     520.863
  C      -31.094      90.299     521.311
  C      -31.184      90.766     522.608
  C      -30.400      90.112     523.571
  N      -30.403      90.452     524.908
  N      -32.066      91.827     522.683
  C      -32.516      91.976     521.456
  N      -31.951      91.084     520.586
  O      -36.432      95.315     518.698
  O      -34.979      96.601     517.029
  H      -33.335      88.573     517.245
  H      -36.566      96.243     518.985
  H      -28.980      87.901     521.602
  H      -33.250      92.716     521.146
  H      -31.189      90.886     518.681
  H      -33.093      88.962     519.539
  H      -34.894      90.629     519.587
  H      -33.763      91.585     516.906
  H      -35.964      92.518     517.445
  H      -29.873      89.883     525.545
  H      -31.046      91.165     525.227
  H      -35.439      92.987     519.052
  P      -36.815      89.454     518.348
  C      -36.098      87.345     519.629
  O      -36.551      88.681     519.735
  O      -37.322      88.284     517.385
  O      -37.691      90.655     518.434
  H      -36.642      87.598     517.269
  H      -35.922      86.955     520.634
  H      -35.156      87.310     519.064
  H      -36.849      86.729     519.132
  H      -37.065      94.295     514.300
  H      -35.524      93.784     514.946
  H      -35.782      95.460     514.525

 3  4  5  6  7  8  9  10  11  12  22  25  29  30  31  32 0
 6-311+G(2d,p)
 ****
 33  36  37 0
 6-311+G(2d,p)
 ****
 1  2  13  14  15  16  17  18  19  20  21  23  24  26 0
 3-21G
 ****
 27  28  34  35  38  39  40  41  42  43  44  45  46  47  48 0
 3-21G
 ****


