%nproc=1
%NoSave
%Mem=1900MB
#P OB98/GEN NMR

erre ene a

0 1
  C      205.827     120.881     113.515
  O      205.033     120.047     112.691
  H      205.911     120.420     114.502
  H      205.355     121.861     113.621
  H      206.827     120.991     113.089
  P      204.800     120.546     111.186
  C      202.679     119.123     110.661
  O      204.063     119.340     110.428
  C      202.447     117.721     111.237
  O      202.816     117.728     112.648
  C      200.983     117.252     111.162
  O      200.985     115.817     111.069
  C      200.455     117.673     112.523
  O      199.221     117.054     112.801
  C      201.653     117.291     113.388
  N      201.343     116.375     118.411
  C      201.399     115.545     117.346
  N      201.494     115.862     116.039
  C      201.552     117.194     115.876
  C      201.514     118.165     116.863
  C      201.400     117.710     118.190
  N      201.334     118.553     119.274
  N      201.594     119.430     116.308
  C      201.679     119.223     115.008
  N      201.649     117.891     114.702
  O      206.276     120.542     110.565
  O      204.138     121.876     111.045
  H      199.313     116.078     112.801
  H      206.664     121.434     110.628
  H      201.361     114.481     117.576
  H      201.753     119.995     114.252
  H      201.732     116.205     113.518
  H      200.279     118.754     112.554
  H      200.436     117.673     110.315
  H      203.119     117.014     110.738
  H      202.147     119.228     109.710
  H      202.307     119.873     111.366
  H      201.237     118.147     120.191
  H      201.357     119.551     119.122
  P      199.729     115.075     110.391
  C      198.996     113.399     112.263
  O      199.617     113.596     111.000
  O      200.273     114.784     108.910
  O      198.461     115.864     110.341
  H      199.525     114.752     108.286
  H      199.011     112.358     112.509
  H      197.983     113.741     112.220
  H      199.527     113.950     113.011

 6  7  8  9  10  11  12  13  14  15  25  28  32  33  34  35 0
 6-311+G(2d,p)
 ****
 36  37  40 0
 6-311+G(2d,p)
 ****
 1  2  3  4  5  16  17  18  19  20  21  22  23  24 0
 3-21G
 ****
 26  27  29  30  31  38  39 41  42  43  44  45  46  47  48 0
 3-21G
 ****


