%nproc=1
%NoSave
%Mem=1900MB
#P OB98/GEN NMR

erre ene a

0 1
  C       49.324     -83.463     260.078
  O       49.869     -83.524     261.382
  H       48.486     -82.759     260.084
  H       48.958     -84.448     259.779
  H       50.076     -83.113     259.368
  P       51.231     -84.363     261.557
  C       49.946     -86.486     262.419
  O       50.801     -85.907     261.448
  C       50.692     -87.550     263.227
  O       51.131     -88.599     262.323
  C       51.928     -87.017     263.958
  O       52.032     -87.682     265.219
  C       53.081     -87.427     263.056
  O       54.312     -87.515     263.774
  C       52.560     -88.747     262.468
  N       53.195     -89.079     261.193
  C       54.592     -88.980     261.141
  O       55.225     -88.604     262.129
  N       55.233     -89.259     259.960
  C       54.532     -89.547     258.900
  N       55.229     -89.796     257.754
  C       53.058     -89.616     258.897
  C       52.462     -89.382     260.066
  O       51.541     -84.161     263.113
  O       52.333     -83.938     260.644
  H       54.366     -86.737     264.376
  H       50.751     -84.219     263.681
  H       52.521     -89.845     257.984
  H       51.378     -89.419     260.155
  H       52.737     -89.576     263.167
  H       53.211     -86.685     262.258
  H       51.907     -85.938     264.116
  H       49.985     -88.014     263.927
  H       56.238     -89.722     257.793
  H       49.074     -86.940     261.933
  H       54.788     -89.977     256.863
  H       49.593     -85.687     263.080
  P       51.263     -87.080     266.489
  C       53.447     -86.459     267.725
  O       52.208     -85.992     267.203
  O       50.652     -88.084     267.414
  O       50.131     -86.159     265.818
  H       49.314     -86.252     266.355
  H       53.977     -85.643     268.170
  H       54.034     -86.875     266.933
  H       53.262     -87.210     268.464

 6  7  8  9  10  11  12  13  14  15  16  26  30  31  32  33  35 0
 6-311+G(2d,p)
 ****
 37  38 0
 6-311+G(2d,p)
 ****
 1  2  3  4  5  17  18  19  20  21  22  23  24  25 0
 3-21G
 ****
 27  28  29  34  36  39  40  41  42  43  44  45  46 0
 3-21G
 ****


