%nproc=1
%NoSave
%Mem=1900MB
#P OB98/GEN NMR

erre ene a

0 1
  C      603.863     449.874     569.476
  O      602.672     449.583     568.739
  P      602.174     450.646     567.648
  C      602.948     449.670     565.384
  O      601.854     449.864     566.278
  C      602.643     450.308     564.015
  O      603.851     450.289     563.207
  C      601.579     449.577     563.185
  O      600.211     449.943     563.369
  C      601.968     449.999     561.767
  O      601.393     451.293     561.478
  C      603.484     450.109     561.830
  N      607.993     448.229     560.296
  C      607.639     449.439     560.792
  N      606.411     449.855     561.173
  C      605.511     448.879     561.016
  C      605.726     447.600     560.516
  C      607.034     447.288     560.140
  N      607.397     446.064     559.620
  N      604.539     446.888     560.490
  C      603.628     447.721     560.946
  N      604.163     448.936     561.290
  O      603.005     451.878     567.499
  O      600.699     451.011     568.170
  H      600.463     451.256     561.784
  H      600.537     451.966     568.016
  H      608.444     450.160     560.896
  H      602.578     447.496     561.044
  H      603.861     450.978     561.269
  H      601.576     449.313     561.007
  H      601.682     448.480     563.291
  H      602.346     451.349     564.166
  H      603.134     448.598     565.259
  H      608.347     445.932     559.326
  H      606.683     445.366     559.445
  H      603.838     450.103     565.850
  P      599.105     448.859     563.784
  C      598.789     449.568     566.274
  O      598.262     449.526     564.968
  O      599.640     447.498     564.085
  O      598.086     448.908     562.544
  H      597.591     449.739     562.473
  H      598.174     450.247     566.885
  H      599.814     449.933     566.271
  H      598.750     448.571     566.715
  H      604.063     449.076     570.160
  H      603.732     450.786     570.021
  H      604.685     449.978     568.799

 3  4  5  6  7  8  9  10  11  12  22  25  29  30  31  32 0
 6-311+G(2d,p)
 ****
 33  36  37 0
 6-311+G(2d,p)
 ****
 1  2  13  14  15  16  17  18  19  20  21  23  24  26 0
 3-21G
 ****
 27  28  34  35  38  39  40  41  42  43  44  45  46  47  48 0
 3-21G
 ****


