%nproc=1
%NoSave
%Mem=1900MB
#P OB98/GEN NMR

erre ene a

0 1
  C     -898.990    -592.061     222.447
  O     -898.430    -591.283     223.529
  P     -898.290    -592.059     224.909
  C     -895.720    -592.463     224.904
  O     -897.020    -593.049     224.840
  C     -894.690    -593.477     225.423
  O     -894.860    -593.721     226.815
  C     -894.710    -594.810     224.671
  O     -893.350    -595.316     224.639
  C     -895.520    -595.712     225.626
  O     -895.260    -597.073     225.362
  C     -895.000    -595.158     226.983
  N     -895.910    -595.503     228.077
  C     -895.550    -596.552     228.941
  O     -894.530    -597.179     228.725
  N     -896.370    -596.839     229.996
  C     -897.460    -596.183     230.167
  N     -898.220    -596.548     231.254
  C     -897.920    -595.137     229.253
  C     -897.090    -594.840     228.250
  O     -899.540    -593.024     224.981
  O     -898.270    -591.101     226.110
  H     -895.760    -597.634     226.035
  H     -900.000    -592.932     225.813
  H     -898.870    -594.648     229.434
  H     -897.350    -594.057     227.526
  H     -894.020    -595.588     227.241
  H     -896.590    -595.500     225.498
  H     -895.130    -594.766     223.658
  H     -893.690    -593.025     225.317
  H     -897.860    -597.273     231.853
  H     -895.730    -591.594     225.578
  H     -899.120    -596.114     231.468
  H     -895.450    -592.102     223.898
  P     -892.650    -595.380     223.183
  C     -890.370    -594.431     223.890
  O     -891.570    -594.195     223.220
  O     -893.790    -594.803     222.229
  O     -892.150    -596.699     222.716
  H     -893.480    -594.851     221.321
  H     -889.700    -593.554     223.748
  H     -889.910    -595.321     223.539
  H     -890.540    -594.508     224.992
  H     -899.045    -591.458     221.565
  H     -899.972    -592.390     222.715
  H     -898.368    -592.911     222.260

 3  4  5  6  7  8  9  10  11  12  13  21  23  27  28  29  30  32 0
 6-311+G(2d,p)
 ****
 34  35 0
 6-311+G(2d,p)
 ****
 1  2  14  15  16  17  18  19  20  22  24  25  26 0
 3-21G
 ****
 31  33  36  37  38  39  40  41  42  43  44  45  46 0
 3-21G
 ****


