%nproc=1
%NoSave
%Mem=1900MB
#P OB98/GEN NMR

erre ene a

0 1
  C      -69.774    -141.329      -0.545
  O      -69.848    -141.266      -1.953
  H      -68.905    -141.930      -0.269
  H      -70.674    -141.810      -0.152
  H      -69.668    -140.334      -0.105
  P      -70.734    -140.117      -2.627
  C      -72.527    -141.938      -2.995
  O      -72.267    -140.598      -2.594
  C      -73.713    -142.027      -3.956
  O      -74.923    -141.587      -3.300
  C      -73.540    -141.121      -5.176
  O      -72.778    -141.669      -6.236
  C      -74.989    -140.896      -5.602
  O      -75.444    -141.961      -6.453
  C      -75.741    -140.912      -4.269
  N      -79.327    -137.307      -3.758
  C      -79.409    -138.530      -4.395
  N      -80.574    -138.800      -5.024
  N      -78.428    -139.394      -4.425
  C      -77.293    -138.948      -3.836
  C      -77.087    -137.750      -3.187
  C      -78.198    -136.823      -3.112
  O      -78.175    -135.723      -2.567
  N      -75.802    -137.650      -2.710
  C      -75.212    -138.750      -3.136
  N      -76.083    -139.580      -3.803
  O      -70.372    -140.227      -4.186
  O      -70.485    -138.731      -2.113
  H      -76.229    -141.651      -6.940
  H      -70.507    -139.366      -4.620
  H      -80.123    -136.693      -3.745
  H      -74.172    -139.003      -2.970
  H      -76.679    -141.478      -4.347
  H      -75.103    -139.966      -6.171
  H      -81.312    -138.120      -5.127
  H      -73.116    -140.156      -4.878
  H      -80.582    -139.553      -5.714
  H      -73.864    -143.074      -4.247
  H      -72.742    -142.502      -2.083
  H      -71.634    -142.379      -3.445
  P      -71.599    -140.814      -6.902
  C      -73.194    -139.502      -8.485
  O      -72.253    -139.452      -7.436
  O      -71.278    -141.634      -8.239
  O      -70.388    -140.644      -6.050
  H      -70.521    -142.230      -8.093
  H      -73.526    -138.511      -8.714
  H      -74.031    -140.098      -8.185
  H      -72.740    -139.935      -9.351

 6  7  8  9  10  11  12  13  14  15  26  29  33  34 0
 6-311+G(2d,p)
 ****
 36  38  39  40  41 0
 6-311+G(2d,p)
 ****
 1  2  3  4  5  16  17  18  19  20  21  22  23  24  25 0
 3-21G
 ****
 27  28  30  31  32  35  37  42  43  44  45  46  47 0
 3-21G
 ****
 48  49 0
 3-21G
 ****


