%nproc=1
%NoSave
%Mem=1900MB
#P OB98/GEN NMR

erre ene a

0 1
  C       65.183     640.586     504.265
  O       65.342     640.450     502.867
  H       65.180     639.588     504.718
  H       64.230     641.077     504.492
  H       66.009     641.163     504.689
  P       65.390     641.808     502.016
  C       63.070     642.215     500.913
  O       63.906     642.415     502.052
  C       62.606     640.762     500.861
  O       61.864     640.445     502.065
  C       61.674     640.450     499.707
  O       62.363     640.292     498.480
  C       61.006     639.177     500.202
  O       61.817     638.023     499.934
  C       60.907     639.415     501.714
  N       58.188     641.895     505.255
  C       59.519     641.737     505.085
  N       60.165     641.075     504.106
  C       59.287     640.559     503.226
  C       57.907     640.638     503.267
  C       57.353     641.350     504.339
  N       55.996     641.489     504.531
  N       57.350     639.950     502.212
  C       58.374     639.465     501.533
  N       59.566     639.812     502.111
  O       65.557     641.287     500.513
  O       66.476     642.757     502.396
  H       62.681     638.199     500.352
  H       66.491     641.356     500.241
  H       60.147     642.201     505.842
  H       58.304     638.861     500.638
  H       61.162     638.522     502.294
  H       60.047     639.027     499.721
  H       60.905     641.238     499.615
  H       63.496     640.116     500.840
  H       63.630     642.452     499.999
  H       62.205     642.892     500.982
  H       55.669     641.952     505.359
  H       55.362     640.990     503.921
  P       61.511     640.385     497.124
  C       61.180     638.125     495.850
  O       60.777     638.979     496.920
  O       62.626     640.404     495.970
  O       60.613     641.569     497.039
  H       62.337     640.983     495.243
  H       60.588     637.234     495.862
  H       62.212     637.869     495.968
  H       61.042     638.632     494.918

 6  7  8  9  10  11  12  13  14  15  25  28  32  33  34  35 0
 6-311+G(2d,p)
 ****
 36  37  40 0
 6-311+G(2d,p)
 ****
 1  2  3  4  5  16  17  18  19  20  21  22  23  24 0
 3-21G
 ****
 26  27  29  30  31  38  39 41  42  43  44  45  46  47  48 0
 3-21G
 ****


