%nproc=1
%NoSave
%Mem=1900MB
#P OB98/GEN NMR

erre ene a

0 1
  C      186.805     -34.845     -19.601
  O      187.969     -35.288     -18.935
  P      187.890     -36.119     -17.566
  C      188.078     -34.179     -15.890
  O      188.740     -35.278     -16.495
  C      188.946     -32.920     -15.919
  O      188.205     -31.805     -15.349
  C      190.268     -33.038     -15.149
  O      191.221     -32.244     -15.863
  C      189.930     -32.395     -13.818
  O      191.085     -31.990     -13.095
  C      189.000     -31.262     -14.273
  N      188.178     -30.758     -13.180
  C      188.739     -29.757     -12.383
  O      189.903     -29.396     -12.567
  N      187.991     -29.228     -11.360
  C      186.827     -29.730     -11.094
  N      186.129     -29.163     -10.075
  C      186.251     -30.871     -11.832
  C      186.966     -31.321     -12.860
  O      188.263     -37.558     -17.675
  O      186.387     -35.886     -17.072
  H      191.633     -32.786     -12.918
  H      185.761     -36.453     -17.588
  H      185.301     -31.292     -11.538
  H      186.625     -32.153     -13.460
  H      189.582     -30.427     -14.684
  H      189.380     -33.109     -13.194
  H      190.623     -34.065     -15.043
  H      189.145     -32.673     -16.968
  H      186.555     -28.372      -9.606
  H      187.872     -34.440     -14.848
  H      185.183     -29.422      -9.840
  H      187.117     -34.001     -16.385
  P      192.746     -32.710     -16.017
  C      193.327     -31.098     -14.118
  O      193.657     -31.537     -15.423
  O      193.130     -33.173     -17.385
  O      192.913     -33.885     -14.939
  H      193.721     -34.393     -15.135
  H      194.163     -30.518     -13.717
  H      193.134     -31.947     -13.455
  H      192.439     -30.461     -14.160
  H      187.082     -34.314     -20.488
  H      186.250     -34.197     -18.956
  H      186.202     -35.689     -19.864

 3  4  5  6  7  8  9  10  11  12  13  23  27  28  29  30  32 0
 6-311+G(2d,p)
 ****
 34  35 0
 6-311+G(2d,p)
 ****
 1  2  14  15  16  17  18  19  20  21  22  24  25  26 0
 3-21G
 ****
 31  33  36  37  38  39  40  41  42  43  44  45  46 0
 3-21G
 ****


