%nproc=1
%NoSave
%Mem=1900MB
#P OB98/GEN NMR

erre ene a

0 1
  C     -411.328     241.511    -360.583
  O     -411.145     240.411    -361.463
  P     -409.784     239.566    -361.335
  C     -407.370     239.820    -362.269
  O     -408.615     240.446    -361.998
  C     -406.251     240.862    -362.405
  O     -406.015     241.462    -361.102
  C     -404.908     240.287    -362.898
  O     -404.300     241.304    -363.705
  C     -404.150     240.093    -361.595
  O     -402.744     239.934    -361.764
  C     -404.597     241.331    -360.825
  N     -401.007     241.024    -357.190
  C     -400.924     241.193    -358.525
  N     -401.924     241.275    -359.432
  C     -403.119     241.171    -358.831
  C     -403.362     240.970    -357.476
  C     -402.237     240.901    -356.634
  N     -402.335     240.712    -355.267
  N     -404.725     240.882    -357.229
  C     -405.288     241.022    -358.416
  N     -404.365     241.229    -359.406
  O     -409.995     238.385    -362.389
  O     -409.489     239.054    -359.958
  H     -402.557     239.048    -362.133
  H     -409.631     237.540    -362.047
  H     -399.916     241.285    -358.927
  H     -406.359     240.973    -358.607
  H     -404.095     242.236    -361.184
  H     -404.513     239.174    -361.107
  H     -405.013     239.372    -363.498
  H     -406.598     241.650    -363.078
  H     -407.441     239.263    -363.216
  H     -401.473     240.477    -354.788
  H     -403.235     240.417    -354.899
  H     -407.143     239.092    -361.472
  P     -403.758     240.919    -365.174
  C     -401.545     239.893    -365.968
  O     -402.435     240.050    -364.879
  O     -403.132     242.324    -365.636
  O     -404.780     240.342    -366.103
  H     -402.534     242.681    -364.968
  H     -400.651     239.372    -365.612
  H     -401.254     240.873    -366.366
  H     -402.007     239.297    -366.748
  H     -412.271     241.975    -360.783
  H     -410.542     242.222    -360.733
  H     -411.308     241.165    -359.571

 3  4  5  6  7  8  9  10  11  12  22  25  29  30  31  32 0
 6-311+G(2d,p)
 ****
 33  36  37 0
 6-311+G(2d,p)
 ****
 1  2  13  14  15  16  17  18  19  20  21  23  24  26 0
 3-21G
 ****
 27  28  34  35  38  39  40  41  42  43  44  45  46  47  48 0
 3-21G
 ****


