%nproc=1
%NoSave
%Mem=1900MB
#P OB98/GEN NMR

erre ene a

0 1
  C      866.616    -577.184      84.211
  O      866.600    -576.013      85.011
  H      865.570    -577.457      83.980
  H      867.075    -578.007      84.758
  H      867.143    -577.011      83.272
  P      867.992    -575.310      85.356
  C      867.136    -575.246      87.797
  O      868.226    -575.516      86.930
  C      867.375    -575.882      89.155
  O      867.058    -577.288      89.108
  C      868.821    -575.799      89.629
  O      869.122    -574.501      90.107
  C      868.837    -576.889      90.697
  O      868.292    -576.398      91.923
  C      867.917    -577.955      90.058
  N      868.686    -579.050      89.416
  C      869.106    -580.067      90.246
  O      868.908    -580.081      91.461
  N      869.814    -581.074      89.633
  C      870.191    -581.106      88.334
  O      870.898    -581.990      87.844
  C      869.737    -579.985      87.501
  C      869.013    -579.002      88.087
  O      868.159    -573.912      84.876
  O      869.089    -576.290      84.709
  H      867.375    -576.119      91.724
  H      869.443    -575.885      83.895
  H      870.144    -581.833      90.206
  H      870.023    -579.964      86.463
  H      868.674    -578.166      87.491
  H      867.276    -578.401      90.834
  H      869.857    -577.240      90.912
  H      869.498    -576.091      88.815
  H      866.689    -575.419      89.890
  H      866.227    -575.682      87.346
  H      867.012    -574.165      87.889
  P      870.629    -574.151      90.556
  C      870.261    -571.864      91.684
  O      870.538    -573.242      91.890
  O      871.513    -573.618      89.485
  O      871.182    -575.559      91.116
  H      871.960    -575.811      90.588
  H      870.224    -571.363      92.629
  H      869.319    -571.760      91.188
  H      871.032    -571.432      91.081

 6  7  8  9  10  11  12  13  14  15  16  26  31  32  33  34  35 0
 6-311+G(2d,p)
 ****
 36  37 0
 6-311+G(2d,p)
 ****
 1  2  3  4  5  17  18  19  20  21  22  23  24  25 0
 3-21G
 ****
 27  28  29  30  38  39  40  41  42  43  44  45 0
 3-21G
 ****


