%nproc=1
%NoSave
%Mem=1900MB
#P OB98/GEN NMR

erre ene a

0 1
  C      405.321     256.926       0.045
  O      403.930     256.845       0.291
  P      403.034     255.720      -0.401
  C      403.238     253.802       1.386
  O      403.549     254.293       0.098
  C      402.167     252.708       1.261
  O      402.499     251.810       0.179
  C      402.044     251.894       2.537
  O      401.014     252.405       3.369
  C      401.758     250.494       2.015
  O      400.364     250.353       1.689
  C      402.615     250.464       0.726
  N      404.055     250.148       0.845
  C      404.941     250.608      -0.121
  O      404.610     251.299      -1.076
  N      406.248     250.213       0.033
  C      406.732     249.457       1.061
  O      407.835     248.918       1.063
  C      405.807     249.243       2.184
  C      404.531     249.563       2.013
  O      403.517     255.764      -1.928
  O      401.551     255.890      -0.268
  H      400.119     251.128       1.153
  H      402.889     256.286      -2.467
  H      406.875     250.426      -0.738
  H      406.190     248.771       3.082
  H      403.813     249.379       2.810
  H      402.194     249.773      -0.015
  H      401.977     249.735       2.768
  H      403.005     251.870       3.076
  H      401.207     253.180       1.021
  H      402.877     254.618       2.019
  H      404.140     253.395       1.866
  P      401.291     252.619       4.930
  C      401.023     255.139       4.552
  O      401.860     254.122       5.059
  O      402.100     251.560       5.592
  O      399.814     252.704       5.551
  H      399.561     251.827       5.921
  H      401.443     256.105       4.862
  H      400.016     255.049       4.937
  H      401.023     255.094       3.457
  H      405.734     257.742       0.600
  H      405.490     257.083      -1.000
  H      405.791     256.014       0.349

 3  4  5  6  7  8  9  10  11  12  13  23  28  29  30  31  32 0
 6-311+G(2d,p)
 ****
 33  34 0
 6-311+G(2d,p)
 ****
 1  2  14  15  16  17  18  19  20  21  22  24  25  26  27 0
 3-21G
 ****
 35  36  37  38  39  40  41  42  43  44  45 0
 3-21G
 ****


