%nproc=1
%NoSave
%Mem=1900MB
#P OB98/GEN NMR

erre ene a

0 1
  C      -61.463    -136.632      93.654
  O      -61.376    -135.519      92.787
  H      -62.390    -137.181      93.472
  H      -60.617    -137.297      93.462
  H      -61.425    -136.302      94.697
  P      -62.552    -134.432      92.884
  C      -64.459    -135.563      91.522
  O      -63.403    -134.613      91.535
  C      -65.291    -135.376      90.259
  O      -66.330    -136.380      90.195
  C      -66.008    -134.032      90.188
  O      -65.167    -132.991      89.722
  C      -67.102    -134.348      89.184
  O      -66.554    -134.362      87.854
  C      -67.511    -135.767      89.608
  N      -72.016    -137.881      90.810
  C      -71.153    -138.111      89.796
  N      -69.964    -137.521      89.559
  C      -69.687    -136.613      90.507
  C      -70.466    -136.275      91.602
  C      -71.689    -136.952      91.738
  N      -72.586    -136.698      92.751
  N      -69.857    -135.279      92.342
  C      -68.723    -135.038      91.713
  N      -68.591    -135.795      90.580
  O      -61.802    -133.037      92.652
  O      -63.364    -134.459      94.136
  H      -65.758    -134.927      87.879
  H      -62.379    -132.294      92.911
  H      -71.461    -138.868      89.080
  H      -67.977    -134.322      92.029
  H      -67.821    -136.388      88.760
  H      -67.908    -133.610      89.191
  H      -66.468    -133.771      91.148
  H      -64.636    -135.520      89.390
  H      -65.089    -135.410      92.405
  H      -73.496    -137.125      92.679
  H      -72.420    -135.909      93.359
  H      -64.039    -136.574      91.551
  P      -64.884    -131.763      90.721
  C      -66.243    -129.931      89.478
  O      -64.957    -130.429      89.831
  O      -63.323    -131.912      91.036
  O      -65.716    -131.767      91.961
  H      -63.120    -131.604      91.940
  H      -66.133    -129.044      88.889
  H      -66.793    -129.703      90.367
  H      -66.769    -130.671      88.913

 6  7  8  9  10  11  12  13  14  15  25  28  32  33  34  35 0
 6-311+G(2d,p)
 ****
 36  39  40 0
 6-311+G(2d,p)
 ****
 1  2  3  4  5  16  17  18  19  20  21  22  23  24 0
 3-21G
 ****
 26  27  29  30  31  37  38  41  42  43  44  45  46  47 0
 3-21G
 ****
 48 0
 3-21G
 ****


