%nproc=1
%NoSave
%Mem=1900MB
#P OB98/GEN NMR

erre ene a

0 1
  C      -95.585     602.282     437.574
  O      -94.720     601.548     436.735
  H      -95.437     603.348     437.381
  H      -95.343     602.079     438.621
  H      -96.630     602.033     437.383
  P      -94.950     599.973     436.576
  C      -96.997     599.489     435.081
  O      -95.597     599.736     435.129
  C      -97.454     599.220     433.639
  O      -98.846     598.807     433.655
  C      -97.373     600.488     432.780
  O      -97.162     600.188     431.405
  C      -98.753     601.098     432.946
  O      -99.113     601.972     431.880
  C      -99.628     599.844     433.039
  N     -104.195     602.101     433.204
  C     -103.150     602.312     432.327
  N     -103.354     603.244     431.364
  N     -102.005     601.686     432.396
  C     -101.925     600.831     433.453
  C     -102.880     600.559     434.402
  C     -104.157     601.236     434.287
  O     -105.107     601.102     435.051
  N     -102.427     599.644     435.321
  C     -101.194     599.371     434.936
  N     -100.851     600.052     433.789
  O      -96.178     599.669     437.560
  O      -93.767     599.110     436.895
  H     -100.079     602.110     431.931
  H      -96.187     598.730     437.814
  H     -105.064     602.592     433.087
  H     -100.524     598.690     435.436
  H      -99.910     599.499     432.037
  H      -98.763     601.686     433.871
  H     -104.130     603.880     431.399
  H      -96.601     601.172     433.115
  H     -102.512     603.628     430.924
  H      -96.881     598.386     433.211
  H      -97.491     600.378     435.479
  H      -97.258     598.652     435.733
  P      -95.686     600.347     430.800
  C      -94.806     597.848     430.867
  O      -95.224     598.972     430.122
  O      -94.759     600.463     432.092
  O      -95.517     601.513     429.880
  H      -94.339     601.345     432.132
  H      -94.548     597.053     430.199
  H      -95.601     597.530     431.509
  H      -93.953     598.109     431.458

 6  7  8  9  10  11  12  13  14  15  26  29  33  34 0
 6-311+G(2d,p)
 ****
 36  38  39  40  41 0
 6-311+G(2d,p)
 ****
 1  2  3  4  5  16  17  18  19  20  21  22  23  24  25 0
 3-21G
 ****
 27  28  30  31  32  35  37  42  43  44  45  46  47 0
 3-21G
 ****
 48  49 0
 3-21G
 ****


