%nproc=1
%NoSave
%Mem=1900MB
#P OB98/GEN NMR

erre ene a

0 1
  C      -63.943     -58.208     244.681
  O      -62.540     -58.043     244.705
  H      -64.290     -58.371     243.657
  H      -64.205     -59.079     245.286
  H      -64.431     -57.325     245.104
  P      -61.945     -56.872     243.784
  C      -61.912     -55.042     245.618
  O      -62.485     -55.491     244.399
  C      -61.252     -53.682     245.419
  O      -60.062     -53.818     244.616
  C      -62.113     -52.656     244.693
  O      -63.078     -52.069     245.553
  C      -61.053     -51.650     244.270
  O      -60.732     -50.789     245.378
  C      -59.853     -52.550     243.940
  N      -57.534     -51.015     239.623
  C      -57.488     -50.541     240.889
  N      -58.137     -50.990     241.981
  C      -58.894     -52.058     241.681
  C      -59.041     -52.654     240.438
  C      -58.323     -52.083     239.373
  N      -58.390     -52.565     238.084
  N      -59.888     -53.737     240.514
  C      -60.249     -53.799     241.779
  N      -59.679     -52.801     242.524
  O      -62.772     -57.014     242.417
  O      -60.474     -56.935     243.540
  H      -61.580     -50.468     245.738
  H      -62.185     -56.797     241.668
  H      -56.837     -49.684     241.046
  H      -60.911     -54.547     242.198
  H      -58.918     -52.133     244.330
  H      -61.371     -51.012     243.442
  H      -62.579     -53.089     243.801
  H      -60.950     -53.307     246.406
  H      -61.157     -55.761     245.952
  H      -57.711     -52.246     237.413
  H      -58.978     -53.373     237.908
  H      -62.700     -54.976     246.375
  P      -64.359     -51.381     244.867
  C      -65.865     -53.476     244.598
  O      -65.025     -52.523     243.958
  O      -63.706     -50.390     243.794
  O      -65.271     -50.665     245.803
  H      -64.320     -49.655     243.603
  H      -66.235     -54.170     243.872
  H      -66.688     -52.972     245.061
  H      -65.305     -54.003     245.342

 6  7  8  9  10  11  12  13  14  15  25  28  32  33  34  35 0
 6-311+G(2d,p)
 ****
 36  39  40 0
 6-311+G(2d,p)
 ****
 1  2  3  4  5  16  17  18  19  20  21  22  23  24 0
 3-21G
 ****
 26  27  29  30  31  37  38  41  42  43  44  45  46  47  48 0
 3-21G
 ****


