%nproc=1
%NoSave
%Mem=1900MB
#P OB98/GEN NMR

erre ene a

0 1
  C      -96.438     521.913     374.884
  O      -97.572     522.049     375.712
  H      -95.601     521.545     375.486
  H      -96.166     522.883     374.456
  H      -96.636     521.194     374.081
  P      -98.921     522.556     375.009
  C      -99.526     524.833     376.116
  O      -98.874     524.158     375.041
  C      -98.744     524.635     377.402
  O      -97.353     525.031     377.203
  C      -99.234     525.481     378.575
  O     -100.392     524.936     379.177
  C      -98.017     525.474     379.481
  O      -97.963     524.293     380.290
  C      -96.846     525.486     378.479
  N      -95.191     529.582     381.046
  C      -95.636     528.379     381.456
  N      -96.041     527.334     380.703
  C      -95.939     527.621     379.391
  C      -95.505     528.804     378.829
  C      -95.116     529.818     379.715
  N      -94.688     531.062     379.296
  N      -95.580     528.739     377.451
  C      -96.044     527.529     377.183
  N      -96.265     526.819     378.336
  O     -100.048     522.184     376.084
  O      -99.211     521.956     373.674
  H      -98.675     524.385     380.947
  H     -100.498     521.358     375.819
  H      -95.668     528.229     382.534
  H      -96.230     527.133     376.197
  H      -96.045     524.815     378.772
  H      -98.025     526.334     380.146
  H      -99.432     526.514     378.234
  H      -98.745     523.567     377.661
  H     -100.542     524.430     376.240
  H      -99.604     525.899     375.868
  H      -94.489     531.761     379.978
  H      -94.735     531.293     378.304
  P     -101.338     525.934     380.014
  C     -101.062     525.846     382.612
  O     -100.561     526.302     381.357
  O     -102.540     524.996     380.510
  O     -101.837     527.106     379.240
  H     -103.378     525.497     380.517
  H     -100.419     526.184     383.397
  H     -101.096     524.777     382.615
  H     -102.047     526.235     382.765

 6  7  8  9  10  11  12  13  14  15  25  28  32  33  34  35 0
 6-311+G(2d,p)
 ****
 36  37  40 0
 6-311+G(2d,p)
 ****
 1  2  3  4  5  16  17  18  19  20  21  22  23  24 0
 3-21G
 ****
 26  27  29  30  31  38  39 41  42  43  44  45  46  47  48 0
 3-21G
 ****


