%nproc=1
%NoSave
%Mem=1900MB
#P OB98/GEN NMR

erre ene a

0 1
  C       77.672     162.973     172.253
  O       76.461     162.709     171.570
  H       78.028     163.965     171.959
  H       78.427     162.232     171.977
  H       77.512     162.963     173.333
  P       75.670     161.377     172.002
  C       73.905     161.591     173.936
  O       74.268     161.887     172.598
  C       72.978     162.674     174.491
  O       73.704     163.926     174.544
  C       71.718     162.900     173.651
  O       70.627     163.183     174.534
  C       72.055     164.134     172.831
  O       70.884     164.824     172.400
  C       72.959     164.911     173.801
  N       73.848     165.842     173.106
  C       73.249     166.945     172.490
  O       72.025     167.089     172.528
  N       74.040     167.835     171.810
  C       75.315     167.608     171.692
  N       76.040     168.520     170.987
  C       75.981     166.430     172.284
  C       75.201     165.604     172.975
  O       76.492     160.916     173.295
  O       75.573     160.348     170.925
  H       71.155     165.714     172.078
  H       76.743     161.650     173.879
  H       77.043     166.277     172.145
  H       75.609     164.717     173.447
  H       72.355     165.481     174.518
  H       72.620     163.848     171.937
  H       71.465     162.054     173.014
  H       72.724     162.414     175.525
  H       75.540     169.304     170.583
  H       74.797     161.518     174.565
  H       77.024     168.417     170.787
  H       73.401     160.619     173.942
  P       69.469     162.091     174.722
  C       70.570     160.194     176.077
  O       69.701     161.316     176.108
  O       69.206     161.215     173.540
  O       68.178     162.994     175.048
  H       67.408     162.595     174.599
  H       70.639     159.769     177.057
  H       71.541     160.504     175.753
  H       70.184     159.463     175.398

 6  7  8  9  10  11  12  13  14  15  16  26  30  31  32  33  35 0
 6-311+G(2d,p)
 ****
 37  38 0
 6-311+G(2d,p)
 ****
 1  2  3  4  5  17  18  19  20  21  22  23  24  25 0
 3-21G
 ****
 27  28  29  34  36  39  40  41  42  43  44  45  46 0
 3-21G
 ****


