%nproc=1
%NoSave
%Mem=1900MB
#P OB98/GEN NMR

erre ene a

0 1
  C     -320.777     356.625     198.023
  O     -320.099     356.926     199.225
  H     -320.178     356.982     197.182
  H     -321.749     357.126     197.999
  H     -320.912     355.544     197.928
  P     -320.857     356.577     200.593
  C     -320.430     354.023     200.823
  O     -320.087     355.336     201.252
  C     -319.584     353.003     201.580
  O     -318.228     353.016     201.071
  C     -319.459     353.283     203.070
  O     -320.605     352.880     203.802
  C     -318.231     352.461     203.417
  O     -318.565     351.089     203.670
  C     -317.367     352.598     202.149
  N     -316.253     353.520     202.353
  C     -315.130     352.982     202.973
  O     -315.053     351.809     203.333
  N     -314.100     353.855     203.201
  C     -314.105     355.188     202.924
  O     -313.167     355.926     203.209
  C     -315.327     355.707     202.286
  C     -316.331     354.863     202.036
  O     -322.240     355.947     200.094
  O     -321.071     357.738     201.507
  H     -322.964     356.583     200.236
  H     -319.030     351.079     204.531
  H     -313.275     353.482     203.647
  H     -315.366     356.762     202.054
  H     -317.245     355.220     201.575
  H     -316.954     351.625     201.858
  H     -317.744     352.844     204.310
  H     -319.238     354.345     203.240
  H     -320.007     352.005     201.407
  H     -320.233     353.924     199.751
  H     -321.497     353.859     201.001
  P     -320.894     353.607     205.202
  C     -322.686     354.960     203.829
  O     -322.324     354.315     205.039
  O     -319.836     354.806     205.131
  O     -320.750     352.700     206.376
  H     -319.633     355.055     204.214
  H     -323.672     355.366     203.922
  H     -322.667     354.251     203.027
  H     -321.993     355.749     203.624

 6  7  8  9  10  11  12  13  14  15  16  27  31  32  33  34  35 0
 6-311+G(2d,p)
 ****
 36  37 0
 6-311+G(2d,p)
 ****
 1  2  3  4  5  17  18  19  20  21  22  23  24  25 0
 3-21G
 ****
 26  28  29  30  38  39  40  41  42  43  44  45 0
 3-21G
 ****


