%nproc=1
%NoSave
%Mem=1900MB
#P OB98/GEN NMR

erre ene a

0 1
  C       19.439     145.435     840.073
  O       20.359     144.569     840.706
  H       18.432     145.008     840.167
  H       19.680     145.522     839.012
  H       19.440     146.429     840.536
  P       21.853     145.090     840.971
  C       23.803     143.969     842.234
  O       22.734     143.789     841.320
  C       24.408     142.621     842.642
  O       23.493     141.958     843.559
  C       24.649     141.665     841.457
  O       25.787     140.851     841.787
  C       23.383     140.829     841.468
  O       23.545     139.637     840.738
  C       23.157     140.670     842.979
  N       21.792     140.261     843.305
  C       21.632     138.979     843.822
  O       22.568     138.193     843.972
  N       20.352     138.600     844.114
  C       19.227     139.353     843.891
  O       18.106     138.944     844.145
  C       19.450     140.677     843.298
  C       20.705     141.078     843.042
  O       21.989     146.212     841.942
  O       22.395     145.490     839.515
  H       22.735     139.089     840.792
  H       23.046     146.216     839.590
  H       20.226     137.677     844.501
  H       18.582     141.286     843.101
  H       20.902     142.042     842.599
  H       23.849     139.926     843.404
  H       22.554     141.380     841.024
  H       24.812     142.180     840.511
  H       25.340     142.800     843.193
  H       23.408     144.475     843.127
  H       24.579     144.602     841.780
  P       27.102     140.819     840.879
  C       29.599     140.364     841.395
  O       28.244     139.976     841.637
  O       27.565     142.169     840.405
  O       26.724     139.890     839.630
  H       27.251     140.143     838.844
  H       30.256     139.731     841.953
  H       29.739     141.380     841.700
  H       29.815     140.272     840.351

 6  7  8  9  10  11  12  13  14  15  16  26  31  32  33  34  35 0
 6-311+G(2d,p)
 ****
 36  37 0
 6-311+G(2d,p)
 ****
 1  2  3  4  5  17  18  19  20  21  22  23  24  25 0
 3-21G
 ****
 27  28  29  30  38  39  40  41  42  43  44  45 0
 3-21G
 ****


