%nproc=1
%NoSave
%Mem=1900MB
#P OB98/GEN NMR

erre ene a

0 1
  C     -180.035    -344.464     212.350
  O     -180.686    -345.080     213.447
  H     -179.274    -345.149     211.970
  H     -179.556    -343.536     212.670
  H     -180.759    -344.259     211.561
  P     -181.825    -344.222     214.185
  C     -183.503    -346.122     213.711
  O     -183.198    -344.744     213.527
  C     -184.712    -346.520     212.858
  O     -184.533    -345.975     211.525
  C     -184.882    -348.035     212.718
  O     -186.277    -348.357     212.740
  C     -184.315    -348.332     211.339
  O     -184.868    -349.516     210.770
  C     -184.650    -347.048     210.583
  N     -183.026    -349.020     206.166
  C     -184.024    -349.376     206.999
  N     -184.408    -348.779     208.155
  C     -183.649    -347.689     208.393
  C     -182.604    -347.207     207.633
  C     -182.282    -347.931     206.473
  N     -181.246    -347.590     205.629
  N     -182.053    -346.083     208.229
  C     -182.770    -345.890     209.320
  N     -183.746    -346.845     209.466
  O     -181.634    -342.741     214.166
  O     -181.857    -344.896     215.635
  H     -185.827    -349.532     210.977
  H     -181.826    -345.869     215.576
  H     -184.597    -350.250     206.707
  H     -182.623    -345.088     210.031
  H     -185.672    -347.051     210.177
  H     -183.227    -348.466     211.413
  H     -184.367    -348.590     213.502
  H     -185.612    -346.056     213.278
  H     -183.717    -346.325     214.768
  H     -181.099    -348.159     204.806
  H     -180.698    -346.769     205.835
  H     -182.622    -346.705     213.419
  P     -187.045    -348.312     214.139
  C     -188.599    -346.382     213.416
  O     -187.639    -346.834     214.366
  O     -186.317    -348.893     215.307
  O     -188.373    -349.162     213.830
  H     -188.600    -349.691     214.625
  H     -188.916    -345.393     213.673
  H     -189.443    -347.040     213.421
  H     -188.159    -346.373     212.441

 6  7  8  9  10  11  12  13  14  15  25  28  32  33  34  35 0
 6-311+G(2d,p)
 ****
 36  39  40 0
 6-311+G(2d,p)
 ****
 1  2  3  4  5  16  17  18  19  20  21  22  23  24 0
 3-21G
 ****
 26  27  29  30  31  37  38  41  42  43  44  45  46  47 0
 3-21G
 ****
 48 0
 3-21G
 ****


