%nproc=1
%NoSave
%Mem=1900MB
#P OB98/GEN NMR

erre ene a

0 1
  C      306.996     -59.205    -170.697
  O      307.532     -57.917    -170.510
  P      308.053     -57.369    -169.107
  C      306.413     -55.359    -169.426
  O      307.693     -55.811    -169.001
  C      306.368     -53.824    -169.496
  O      306.753     -53.291    -168.203
  C      307.373     -53.277    -170.523
  O      306.872     -52.206    -171.311
  C      308.608     -53.000    -169.675
  O      309.515     -52.087    -170.274
  C      307.983     -52.555    -168.355
  N      311.779     -50.800    -165.470
  C      311.068     -50.153    -166.460
  N      311.552     -48.952    -166.848
  N      310.008     -50.656    -167.034
  C      309.712     -51.909    -166.623
  C      310.343     -52.652    -165.652
  C      311.493     -52.072    -165.003
  O      312.223     -52.657    -164.201
  N      309.811     -53.911    -165.546
  C      308.881     -53.945    -166.479
  N      308.807     -52.763    -167.181
  O      309.418     -57.805    -168.682
  O      306.990     -58.028    -168.085
  H      310.134     -51.792    -169.580
  H      307.473     -58.225    -167.257
  H      312.641     -50.395    -165.122
  H      308.257     -54.800    -166.710
  H      307.739     -51.492    -168.367
  H      309.142     -53.949    -169.555
  H      312.446     -48.606    -166.528
  H      307.618     -54.044    -171.266
  H      311.204     -48.577    -167.726
  H      305.343     -53.502    -169.699
  H      305.696     -55.721    -168.682
  H      306.149     -55.797    -170.391
  P      307.236     -51.814    -172.815
  C      308.432     -49.629    -172.207
  O      307.360     -50.221    -172.914
  O      305.908     -52.118    -173.654
  O      308.391     -52.560    -173.393
  H      306.148     -52.504    -174.518
  H      308.247     -48.553    -172.123
  H      309.363     -49.787    -172.754
  H      308.516     -50.053    -171.201
  H      306.720     -59.331    -171.723
  H      306.131     -59.325    -170.078
  H      307.729     -59.938    -170.432

 3  4  5  6  7  8  9  10  11  12  23  26  30  31 0
 6-311+G(2d,p)
 ****
 33  35  36  37  38 0
 6-311+G(2d,p)
 ****
 1  2  13  14  15  16  17  18  19  20  21  22  24  25 0
 3-21G
 ****
 27  28  29  32  34  39  40  41  42  43  44  45  46  47  48  49 0
 3-21G
 ****


