%nproc=1
%NoSave
%Mem=1900MB
#P OB98/GEN NMR

erre ene a

0 1
  C      428.355    -524.870    -461.686
  O      427.658    -526.013    -462.141
  H      428.924    -524.450    -462.520
  H      429.054    -525.147    -460.887
  H      427.651    -524.118    -461.319
  P      426.810    -526.815    -461.040
  C      424.530    -527.394    -462.133
  O      425.855    -527.818    -461.853
  C      423.952    -528.188    -463.301
  O      424.657    -527.883    -464.526
  C      424.006    -529.699    -463.123
  O      422.906    -530.158    -462.354
  C      423.952    -530.173    -464.570
  O      422.595    -530.150    -465.068
  C      424.811    -529.118    -465.286
  N      428.108    -532.354    -467.313
  C      426.730    -532.359    -467.340
  N      426.135    -533.390    -467.975
  N      425.992    -531.436    -466.779
  C      426.716    -530.495    -466.126
  C      428.082    -530.386    -466.026
  C      428.883    -531.384    -466.700
  O      430.114    -531.394    -466.783
  N      428.444    -529.278    -465.298
  C      427.292    -528.747    -464.926
  N      426.215    -529.450    -465.405
  O      425.789    -525.710    -460.484
  O      427.601    -527.421    -459.935
  H      422.270    -529.232    -465.065
  H      425.675    -525.846    -459.526
  H      428.620    -533.077    -467.788
  H      427.190    -527.848    -464.333
  H      424.452    -528.917    -466.302
  H      424.299    -531.200    -464.672
  H      426.620    -534.255    -468.167
  H      424.956    -530.009    -462.676
  H      425.122    -533.427    -467.928
  H      422.911    -527.853    -463.444
  H      424.548    -526.328    -462.391
  H      423.906    -527.538    -461.242
  P      423.199    -531.147    -461.130
  C      421.050    -531.077    -459.676
  O      421.803    -531.781    -460.653
  O      423.575    -530.141    -459.936
  O      424.303    -532.128    -461.371
  H      424.544    -530.159    -459.785
  H      420.152    -531.617    -459.460
  H      420.801    -530.106    -460.049
  H      421.630    -530.978    -458.782

 6  7  8  9  10  11  12  13  14  15  26  29  33  34 0
 6-311+G(2d,p)
 ****
 36  38  39  40  41 0
 6-311+G(2d,p)
 ****
 1  2  3  4  5  16  17  18  19  20  21  22  23  24  25 0
 3-21G
 ****
 27  28  30  31  32  35  37  42  43  44  45  46  47 0
 3-21G
 ****
 48  49 0
 3-21G
 ****


