%nproc=1
%NoSave
%Mem=1900MB
#P OB98/GEN NMR

erre ene a

0 1
  C     -176.792     184.272     -22.783
  O     -177.626     183.173     -22.483
  H     -176.657     184.320     -23.868
  H     -175.810     184.153     -22.313
  H     -177.258     185.204     -22.449
  P     -177.885     182.813     -20.938
  C     -176.447     181.619     -19.140
  O     -176.483     182.203     -20.433
  C     -175.124     181.947     -18.448
  O     -175.052     183.351     -18.113
  C     -174.898     181.222     -17.122
  O     -174.566     179.851     -17.281
  C     -173.741     182.038     -16.569
  O     -172.524     181.673     -17.249
  C     -174.178     183.475     -16.954
  N     -174.869     184.169     -15.866
  C     -174.140     184.373     -14.684
  O     -172.978     183.973     -14.593
  N     -174.757     184.986     -13.623
  C     -176.000     185.354     -13.724
  N     -176.577     185.914     -12.621
  C     -176.799     185.176     -14.950
  C     -176.180     184.580     -15.968
  O     -179.087     181.975     -20.647
  O     -177.904     184.233     -20.195
  H     -171.813     182.221     -16.867
  H     -178.074     184.064     -19.237
  H     -177.830     185.490     -14.975
  H     -176.707     184.401     -16.903
  H     -173.313     184.073     -17.265
  H     -173.575     181.884     -15.499
  H     -175.761     181.342     -16.458
  H     -174.317     181.743     -19.166
  H     -176.011     185.983     -11.784
  H     -176.576     180.538     -19.250
  H     -177.586     185.966     -12.526
  H     -177.266     182.014     -18.525
  P     -175.244     178.795     -16.279
  C     -174.621     177.839     -13.931
  O     -174.378     178.823     -14.925
  O     -174.866     177.388     -16.938
  O     -176.719     178.953     -16.065
  H     -175.585     177.068     -17.522
  H     -173.965     178.000     -13.102
  H     -174.445     176.867     -14.341
  H     -175.636     177.909     -13.601

 6  7  8  9  10  11  12  13  14  15  16  26  30  31  32  33  35 0
 6-311+G(2d,p)
 ****
 37  38 0
 6-311+G(2d,p)
 ****
 1  2  3  4  5  17  18  19  20  21  22  23  24  25 0
 3-21G
 ****
 27  28  29  34  36  39  40  41  42  43  44  45  46 0
 3-21G
 ****


