%nproc=1
%NoSave
%Mem=1900MB
#P OB98/GEN NMR

erre ene a

0 1
  C      259.829      36.986     -67.336
  O      258.506      36.813     -67.860
  P      257.188      36.929     -66.957
  C      256.239      38.896     -68.332
  O      256.614      38.422     -67.041
  C      255.108      39.925     -68.251
  O      253.869      39.292     -67.888
  C      255.319      41.023     -67.216
  O      256.260      41.985     -67.672
  C      253.897      41.554     -67.055
  O      253.568      42.483     -68.098
  C      253.062      40.261     -67.190
  N      252.610      39.752     -65.903
  C      251.304      40.085     -65.525
  O      250.621      40.825     -66.228
  N      250.820      39.592     -64.334
  C      251.592      38.895     -63.563
  N      251.054      38.426     -62.406
  C      253.001      38.594     -63.882
  C      253.435      39.049     -65.060
  O      257.366      36.423     -65.560
  O      256.080      36.061     -67.721
  H      253.671      41.999     -68.940
  H      255.466      35.680     -67.068
  H      253.617      38.031     -63.201
  H      254.454      38.863     -65.380
  H      252.187      40.439     -67.827
  H      253.745      42.068     -66.104
  H      255.654      40.584     -66.269
  H      254.983      40.361     -69.253
  H      250.085      38.644     -62.216
  H      255.903      38.037     -68.927
  H      251.568      37.872     -61.734
  H      257.118      39.332     -68.816
  P      257.760      41.948     -67.118
  C      258.494      41.528     -69.546
  O      258.649      41.151     -68.190
  O      257.918      41.502     -65.704
  O      258.267      43.458     -67.300
  H      258.911      43.664     -66.595
  H      259.389      41.232     -70.095
  H      258.352      42.608     -69.641
  H      257.628      41.007     -69.967
  H      260.543      36.863     -68.123
  H      260.009      36.257     -66.574
  H      259.922      37.967     -66.920

 3  4  5  6  7  8  9  10  11  12  13  23  27  28  29  30  32 0
 6-311+G(2d,p)
 ****
 34  35 0
 6-311+G(2d,p)
 ****
 1  2  14  15  16  17  18  19  20  21  22  24  25  26 0
 3-21G
 ****
 31  33  36  37  38  39  40  41  42  43  44  45  46 0
 3-21G
 ****


