%nproc=1
%NoSave
%Mem=1900MB
#P OB98/GEN NMR

erre ene a

0 1
  C     -222.604     571.863    -172.246
  O     -221.760     570.770    -172.559
  H     -222.609     572.562    -173.093
  H     -222.222     572.387    -171.365
  H     -223.631     571.528    -172.064
  P     -221.783     569.478    -171.616
  C     -222.883     567.313    -172.491
  O     -221.771     568.196    -172.586
  C     -222.933     566.384    -173.708
  O     -222.493     567.132    -174.890
  C     -222.023     565.140    -173.598
  O     -222.666     564.071    -174.316
  C     -220.780     565.619    -174.326
  O     -219.912     564.560    -174.635
  C     -221.436     566.367    -175.493
  N     -220.510     567.220    -176.229
  C     -219.568     566.599    -177.042
  O     -219.487     565.372    -177.186
  N     -218.692     567.434    -177.692
  C     -218.666     568.797    -177.597
  O     -217.872     569.496    -178.223
  C     -219.671     569.393    -176.701
  C     -220.532     568.592    -176.071
  O     -222.839     569.460    -170.562
  O     -220.311     569.454    -170.975
  H     -220.334     569.856    -170.084
  H     -220.289     564.010    -175.360
  H     -218.006     566.994    -178.283
  H     -219.663     570.473    -176.593
  H     -221.283     569.002    -175.395
  H     -221.904     565.660    -176.190
  H     -220.219     566.312    -173.689
  H     -221.849     564.830    -172.560
  H     -223.975     566.094    -173.893
  H     -223.797     567.914    -172.444
  H     -222.793     566.718    -171.572
  P     -222.949     562.631    -173.681
  C     -224.401     563.282    -171.650
  O     -224.367     562.650    -172.919
  O     -221.828     562.109    -172.828
  O     -223.199     561.647    -174.928
  H     -222.829     560.761    -174.725
  H     -225.392     563.228    -171.251
  H     -224.114     564.308    -171.754
  H     -223.722     562.788    -170.987

 6  7  8  9  10  11  12  13  14  15  16  27  31  32  33  34  35 0
 6-311+G(2d,p)
 ****
 36  37 0
 6-311+G(2d,p)
 ****
 1  2  3  4  5  17  18  19  20  21  22  23  24  25 0
 3-21G
 ****
 26  28  29  30  38  39  40  41  42  43  44  45 0
 3-21G
 ****


