%nproc=1
%NoSave
%Mem=1900MB
#P OB98/GEN NMR

erre ene a

0 1
  C     -136.149    -164.613     103.406
  O     -134.792    -164.384     103.070
  H     -136.757    -164.484     102.504
  H     -136.489    -163.903     104.164
  H     -136.276    -165.637     103.768
  P     -133.732    -164.239     104.270
  C     -133.462    -162.651     106.290
  O     -134.217    -162.959     105.117
  C     -134.236    -161.710     107.214
  O     -135.292    -162.420     107.901
  C     -133.394    -161.098     108.327
  O     -132.404    -160.198     107.889
  C     -134.460    -160.614     109.299
  O     -135.003    -159.345     108.926
  C     -135.539    -161.718     109.140
  N     -135.573    -162.629     110.280
  C     -136.122    -162.120     111.453
  O     -136.542    -160.966     111.564
  N     -136.144    -162.977     112.523
  C     -135.640    -164.245     112.545
  O     -135.672    -164.956     113.544
  C     -135.035    -164.716     111.286
  C     -135.031    -163.898     110.225
  O     -132.291    -164.182     103.857
  O     -134.076    -165.466     105.239
  H     -134.249    -158.731     108.837
  H     -133.344    -165.631     105.882
  H     -136.553    -162.631     113.378
  H     -134.613    -165.713     111.272
  H     -134.592    -164.225     109.284
  H     -136.536    -161.260     109.042
  H     -134.078    -160.519     110.318
  H     -132.857    -161.911     108.836
  H     -134.706    -160.933     106.596
  H     -132.536    -162.161     105.971
  H     -133.213    -163.579     106.816
  P     -131.124    -159.792     108.753
  C     -130.687    -158.690     111.087
  O     -131.616    -158.991     110.053
  O     -129.944    -159.262     108.003
  O     -130.695    -161.223     109.386
  H     -129.717    -161.223     109.455
  H     -131.185    -158.156     111.870
  H     -129.896    -158.087     110.692
  H     -130.281    -159.600     111.478

 6  7  8  9  10  11  12  13  14  15  16  26  31  32  33  34  35 0
 6-311+G(2d,p)
 ****
 36  37 0
 6-311+G(2d,p)
 ****
 1  2  3  4  5  17  18  19  20  21  22  23  24  25 0
 3-21G
 ****
 27  28  29  30  38  39  40  41  42  43  44  45 0
 3-21G
 ****


