%nproc=1
%NoSave
%Mem=1900MB
#P OB98/GEN NMR

erre ene a

0 1
  C      -77.075     344.991     254.329
  O      -75.965     344.226     254.826
  P      -74.691     345.073     255.347
  C      -75.175     346.616     257.383
  O      -74.859     345.301     256.925
  C      -75.880     346.601     258.742
  O      -77.065     345.766     258.654
  C      -75.031     346.057     259.899
  O      -75.353     346.808     261.084
  C      -75.576     344.648     260.100
  O      -75.318     344.157     261.414
  C      -77.051     344.868     259.775
  N      -78.205     340.197     261.358
  C      -77.549     341.221     262.023
  N      -77.132     340.943     263.283
  N      -77.335     342.395     261.503
  C      -77.839     342.541     260.253
  C      -78.512     341.608     259.489
  C      -78.707     340.285     260.059
  O      -79.228     339.328     259.501
  N      -78.863     342.122     258.266
  C      -78.406     343.359     258.281
  N      -77.766     343.652     259.464
  O      -74.936     346.519     254.707
  O      -73.382     344.499     254.917
  H      -75.935     344.624     262.021
  H      -74.165     346.782     254.164
  H      -78.325     339.289     261.790
  H      -78.485     344.067     257.466
  H      -77.569     345.363     260.612
  H      -75.100     343.972     259.378
  H      -77.318     340.076     263.760
  H      -73.952     346.078     259.724
  H      -76.695     341.696     263.801
  H      -76.221     347.618     258.962
  H      -75.818     347.110     256.642
  H      -74.244     347.196     257.451
  P      -74.150     347.673     261.723
  C      -74.834     350.065     260.939
  O      -74.763     349.132     262.004
  O      -73.160     347.907     260.482
  O      -73.469     347.014     262.885
  H      -72.250     348.025     260.802
  H      -74.629     349.598     259.968
  H      -74.096     350.857     261.118
  H      -75.836     350.500     260.915
  H      -77.853     344.327     254.015
  H      -76.755     345.585     253.498
  H      -77.443     345.631     255.104

 3  4  5  6  7  8  9  10  11  12  23  26  30  31  33  0
 6-311+G(2d,p)
 ****
 35  36  37  38 0
 6-311+G(2d,p)
 ****
 1  2  13  14  15  16  17  18  19  20  21  22  24  25  27  28  29 0
 3-21G
 ****
 32  34  39  40  41  42  43  44  45  46  47  48  49 0
 3-21G
 ****


