%nproc=1
%NoSave
%Mem=1900MB
#P OB98/GEN NMR

erre ene a

0 1
  C       93.610     -37.337      21.464
  O       94.543     -38.045      20.641
  P       94.155     -39.536      20.200
  C       94.611     -39.056      17.682
  O       93.690     -39.509      18.667
  C       94.334     -39.746      16.345
  O       94.796     -41.109      16.356
  C       92.855     -39.829      16.010
  O       92.381     -38.586      15.531
  C       92.827     -40.941      14.969
  O       92.990     -40.427      13.637
  C       94.033     -41.822      15.368
  N       93.634     -43.133      15.852
  C       93.487     -44.127      14.879
  O       93.671     -43.861      13.689
  N       93.112     -45.385      15.277
  C       92.879     -45.621      16.530
  N       92.505     -46.885      16.863
  C       92.996     -44.594      17.584
  C       93.373     -43.383      17.179
  O       92.793     -39.811      20.994
  O       95.198     -40.554      20.527
  H       93.792     -39.867      13.668
  H       92.726     -40.752      21.234
  H       92.784     -44.836      18.615
  H       93.484     -42.566      17.885
  H       94.698     -41.970      14.508
  H       91.875     -41.479      14.984
  H       92.287     -40.138      16.897
  H       94.867     -39.199      15.555
  H       92.432     -47.563      16.115
  H       95.635     -39.260      18.002
  H       92.293     -47.177      17.806
  H       94.522     -37.968      17.589
  P       91.587     -37.646      16.553
  C       92.898     -35.541      15.888
  O       92.612     -36.467      16.918
  O       91.603     -38.522      17.896
  O       90.206     -37.232      16.173
  H       91.060     -38.095      18.582
  H       93.429     -34.690      16.320
  H       91.975     -35.181      15.426
  H       93.536     -36.009      15.135
  H       93.994     -36.362      21.681
  H       93.462     -37.873      22.378
  H       92.677     -37.246      20.948

 3  4  5  6  7  8  9  10  11  12  13  21  23  27  28  29  30  32 0
 6-311+G(2d,p)
 ****
 34  35 0
 6-311+G(2d,p)
 ****
 1  2  14  15  16  17  18  19  20  22  24  25  26 0
 3-21G
 ****
 31  33  36  37  38  39  40  41  42  43  44  45  46 0
 3-21G
 ****


