%nproc=1
%NoSave
%Mem=1900MB
#P OB98/GEN NMR

erre ene a

0 1
  C      381.112     166.648     -76.680
  O      380.552     166.307     -75.425
  H      381.905     167.388     -76.549
  H      381.534     165.748     -77.132
  H      380.335     167.047     -77.340
  P      379.908     167.504     -74.571
  C      380.789     166.894     -72.205
  O      379.667     166.937     -73.083
  C      380.596     165.777     -71.175
  O      379.235     165.833     -70.686
  C      380.865     164.362     -71.710
  O      381.884     163.725     -70.935
  C      379.552     163.619     -71.477
  O      379.740     162.279     -71.019
  C      378.843     164.478     -70.435
  N      375.037     161.090     -70.339
  C      376.295     161.034     -69.849
  N      377.227     162.002     -69.814
  C      376.730     163.149     -70.330
  C      375.465     163.368     -70.836
  C      374.596     162.256     -70.855
  N      373.332     162.299     -71.404
  N      375.330     164.667     -71.294
  C      376.518     165.219     -71.088
  N      377.403     164.329     -70.536
  O      378.426     167.622     -75.167
  O      380.640     168.800     -74.643
  H      380.027     161.756     -71.793
  H      378.226     168.562     -75.357
  H      376.596     160.069     -69.442
  H      376.801     166.228     -71.366
  H      379.139     164.217     -69.409
  H      378.990     163.595     -72.421
  H      381.140     164.353     -72.768
  H      381.252     165.990     -70.315
  H      380.877     167.853     -71.679
  H      372.823     161.442     -71.472
  H      373.045     163.143     -71.881
  H      381.697     166.735     -72.792
  P      383.403     163.929     -71.441
  C      384.373     161.576     -70.871
  O      384.338     162.966     -70.557
  O      383.768     165.393     -70.907
  O      383.570     163.818     -72.925
  H      384.452     165.799     -71.471
  H      385.036     161.075     -70.197
  H      384.719     161.446     -71.875
  H      383.390     161.164     -70.776

 6  7  8  9  10  11  12  13  14  15  25  28  32  33  34  35 0
 6-311+G(2d,p)
 ****
 36  39  40 0
 6-311+G(2d,p)
 ****
 1  2  3  4  5  16  17  18  19  20  21  22  23  24 0
 3-21G
 ****
 26  27  29  30  31  37  38  41  42  43  44  45  46  47  48 0
 3-21G
 ****


