%nproc=1
%NoSave
%Mem=1900MB
#P OB98/GEN NMR

erre ene a

0 1
  C      151.104      -8.040     114.290
  O      149.779      -8.134     114.770
  H      151.652      -7.263     114.831
  H      151.604      -9.000     114.448
  H      151.100      -7.816     113.220
  P      148.909      -6.786     114.724
  C      147.645      -7.303     112.521
  O      148.609      -6.491     113.175
  C      146.420      -6.474     112.157
  O      145.754      -6.017     113.351
  C      146.719      -5.213     111.355
  O      146.943      -5.497     109.982
  C      145.428      -4.435     111.563
  O      144.417      -4.925     110.663
  C      145.058      -4.788     113.012
  N      143.292      -1.201     116.233
  C      142.656      -2.064     115.408
  N      143.187      -2.979     114.574
  C      144.528      -2.972     114.650
  C      145.314      -2.152     115.442
  C      144.643      -1.226     116.259
  N      145.302      -0.340     117.084
  N      146.650      -2.438     115.267
  C      146.675      -3.414     114.383
  N      145.416      -3.768     113.975
  O      149.964      -5.646     115.119
  O      147.718      -6.763     115.623
  H      144.467      -4.373     109.860
  H      149.509      -4.962     115.646
  H      141.570      -2.013     115.422
  H      147.573      -3.896     114.017
  H      143.986      -4.993     113.114
  H      145.537      -3.364     111.381
  H      147.554      -4.653     111.791
  H      145.723      -7.124     111.612
  H      147.342      -8.116     113.189
  H      144.773       0.155     117.782
  H      146.315      -0.372     117.103
  H      148.097      -7.732     111.621
  P      147.873      -4.479     109.157
  C      150.027      -5.856     109.598
  O      149.339      -4.626     109.792
  O      147.389      -3.045     109.678
  O      147.780      -4.594     107.675
  H      147.575      -2.366     109.000
  H      150.984      -5.808     110.074
  H      150.158      -6.030     108.550
  H      149.457      -6.655     110.024

 6  7  8  9  10  11  12  13  14  15  25  28  32  33  34  35 0
 6-311+G(2d,p)
 ****
 36  39  40 0
 6-311+G(2d,p)
 ****
 1  2  3  4  5  16  17  18  19  20  21  22  23  24 0
 3-21G
 ****
 26  27  29  30  31  37  38  41  42  43  44  45  46  47  48 0
 3-21G
 ****


