%nproc=1
%NoSave
%Mem=1900MB
#P OB98/GEN NMR

erre ene a

0 1
  C       60.718    -147.516     207.839
  O       60.144    -148.104     208.988
  H       61.778    -147.774     207.768
  H       60.201    -147.897     206.954
  H       60.601    -146.429     207.876
  P       60.838    -147.751     210.391
  C       58.849    -147.339     212.001
  O       59.831    -148.253     211.536
  C       57.904    -148.032     212.974
  O       57.013    -148.916     212.262
  C       58.590    -148.907     214.016
  O       59.132    -148.139     215.081
  C       57.419    -149.761     214.481
  O       56.628    -149.024     215.431
  C       56.624    -149.968     213.183
  N       55.325    -154.935     213.084
  C       54.893    -153.906     213.849
  N       55.290    -152.618     213.828
  C       56.227    -152.422     212.886
  C       56.764    -153.373     212.032
  C       56.281    -154.685     212.161
  N       56.738    -155.731     211.389
  N       57.693    -152.802     211.190
  C       57.719    -151.530     211.525
  N       56.854    -151.250     212.551
  O       60.724    -146.155     210.473
  O       62.252    -148.206     210.537
  H       57.169    -148.938     216.239
  H       61.521    -145.803     210.912
  H       54.121    -154.150     214.574
  H       58.340    -150.777     211.052
  H       55.546    -149.859     213.351
  H       57.730    -150.689     214.965
  H       59.349    -149.551     213.558
  H       57.292    -147.259     213.458
  H       58.273    -146.960     211.150
  H       56.222    -156.594     211.390
  H       57.450    -155.531     210.693
  H       59.352    -146.499     212.491
  P       60.720    -148.220     215.319
  C       60.711    -145.684     215.868
  O       61.071    -146.994     216.292
  O       61.319    -147.753     213.908
  O       61.232    -149.559     215.726
  H       62.214    -148.128     213.790
  H       61.005    -144.975     216.613
  H       59.652    -145.634     215.726
  H       61.205    -145.459     214.946

 6  7  8  9  10  11  12  13  14  15  25  28  32  33  34  35 0
 6-311+G(2d,p)
 ****
 36  39  40 0
 6-311+G(2d,p)
 ****
 1  2  3  4  5  16  17  18  19  20  21  22  23  24 0
 3-21G
 ****
 26  27  29  30  31  37  38  41  42  43  44  45  46  47  48 0
 3-21G
 ****


