%nproc=1
%NoSave
%Mem=1900MB
#P OB98/GEN NMR

erre ene a

0 1
  C      292.603    -206.109    -177.286
  O      293.857    -205.998    -177.937
  P      293.866    -206.000    -179.541
  C      292.936    -207.808    -181.208
  O      293.578    -207.512    -179.977
  C      292.377    -209.236    -181.185
  O      291.282    -209.317    -180.245
  C      291.810    -209.713    -182.512
  O      292.834    -210.088    -183.423
  C      290.918    -210.868    -182.055
  O      291.709    -212.046    -181.820
  C      290.365    -210.324    -180.719
  N      289.008    -209.797    -180.836
  C      288.086    -210.610    -181.485
  O      288.368    -211.716    -181.946
  N      286.815    -210.100    -181.601
  C      286.409    -208.855    -181.202
  O      285.276    -208.435    -181.371
  C      287.438    -208.036    -180.550
  C      288.667    -208.533    -180.400
  O      295.429    -205.785    -179.826
  O      292.968    -204.967    -180.138
  H      295.976    -206.126    -179.097
  H      292.021    -212.350    -182.700
  H      286.125    -210.680    -182.052
  H      287.156    -207.038    -180.229
  H      289.440    -207.933    -179.931
  H      290.364    -211.122    -179.961
  H      290.156    -211.127    -182.793
  H      291.187    -208.932    -182.959
  H      293.172    -209.909    -180.837
  H      293.663    -207.715    -182.022
  H      292.129    -207.084    -181.377
  P      292.380    -210.368    -184.943
  C      290.354    -211.773    -185.807
  O      291.423    -211.647    -184.894
  O      293.743    -210.909    -185.583
  O      291.815    -209.165    -185.628
  H      294.217    -211.526    -184.989
  H      290.062    -212.828    -185.863
  H      290.641    -211.435    -186.808
  H      289.502    -211.185    -185.453
  H      292.749    -206.094    -176.226
  H      292.135    -207.029    -177.569
  H      291.979    -205.288    -177.572

 3  4  5  6  7  8  9  10  11  12  13  24  28  29  30  31  32 0
 6-311+G(2d,p)
 ****
 33  34 0
 6-311+G(2d,p)
 ****
 1  2  14  15  16  17  18  19  20  21  22  23  25  26  27 0
 3-21G
 ****
 35  36  37  38  39  40  41  42  43  44  45 0
 3-21G
 ****


