%nproc=1
%NoSave
%Mem=1900MB
#P OB98/GEN NMR

erre ene a

0 1
  C      126.733    -272.113     156.866
  O      126.209    -272.438     155.590
  P      125.397    -271.293     154.814
  C      126.559    -271.803     152.541
  O      125.341    -271.720     153.272
  C      126.294    -272.326     151.132
  O      126.048    -273.746     151.168
  C      125.076    -271.719     150.449
  O      125.343    -270.405     149.994
  C      124.836    -272.743     149.345
  O      125.754    -272.523     148.262
  C      125.166    -274.067     150.057
  N      121.690    -277.709     149.126
  C      122.731    -277.247     148.396
  N      123.597    -276.259     148.703
  C      123.314    -275.736     149.905
  C      122.276    -276.086     150.752
  C      121.438    -277.128     150.323
  N      120.375    -277.593     151.068
  N      122.287    -275.310     151.890
  C      123.322    -274.511     151.741
  N      123.983    -274.740     150.564
  O      126.411    -270.058     154.820
  O      124.077    -270.935     155.426
  H      125.722    -273.316     147.688
  H      125.931    -269.211     154.887
  H      122.889    -277.738     147.439
  H      123.634    -273.760     152.455
  H      125.696    -274.773     149.408
  H      123.825    -272.702     148.931
  H      124.221    -271.706     151.138
  H      127.195    -272.148     150.530
  H      127.245    -272.488     153.049
  H      119.741    -278.238     150.622
  H      120.104    -277.067     151.889
  H      127.023    -270.812     152.512
  P      124.126    -269.359     150.005
  C      125.200    -267.480     151.390
  O      124.852    -267.927     150.091
  O      123.551    -269.548     151.483
  O      123.144    -269.526     148.898
  H      124.254    -269.525     152.158
  H      125.729    -266.529     151.302
  H      125.857    -268.208     151.879
  H      124.297    -267.330     151.989
  H      127.247    -272.961     157.267
  H      125.933    -271.838     157.521
  H      127.415    -271.294     156.773

 3  4  5  6  7  8  9  10  11  12  22  25  29  30  31  32 0
 6-311+G(2d,p)
 ****
 33  36  37 0
 6-311+G(2d,p)
 ****
 1  2  13  14  15  16  17  18  19  20  21  23  24  26 0
 3-21G
 ****
 27  28  34  35  38  39  40  41  42  43  44  45  46  47  48 0
 3-21G
 ****


