%nproc=1
%NoSave
%Mem=1900MB
#P OB98/GEN NMR

erre ene a

0 1
  C      221.341    -345.547     -69.828
  O      222.446    -346.224     -69.258
  P      223.832    -345.418     -69.155
  C      225.561    -344.615     -70.926
  O      224.503    -345.517     -70.607
  C      226.682    -345.345     -71.658
  O      227.179    -346.424     -70.848
  C      226.244    -345.981     -72.968
  O      226.139    -345.006     -73.989
  C      227.362    -346.993     -73.199
  O      228.476    -346.393     -73.874
  C      227.748    -347.400     -71.754
  N      227.325    -348.747     -71.419
  C      228.350    -349.691     -71.279
  O      229.525    -349.359     -71.457
  N      228.018    -350.987     -70.979
  C      226.768    -351.315     -70.840
  N      226.496    -352.616     -70.538
  C      225.657    -350.356     -70.999
  C      226.006    -349.105     -71.291
  O      224.741    -346.378     -68.256
  O      223.714    -344.045     -68.584
  H      228.120    -346.041     -74.715
  H      225.422    -345.863     -67.780
  H      224.634    -350.679     -70.869
  H      225.251    -348.338     -71.426
  H      228.838    -347.341     -71.624
  H      227.035    -347.838     -73.813
  H      225.292    -346.509     -72.843
  H      227.499    -344.633     -71.834
  H      227.280    -353.251     -70.443
  H      225.962    -344.190     -70.003
  H      225.560    -352.962     -70.388
  H      225.158    -343.800     -71.537
  P      224.969    -345.184     -75.070
  C      224.485    -346.888     -76.926
  O      225.416    -346.448     -75.949
  O      225.251    -343.965     -76.073
  O      223.567    -345.186     -74.564
  H      224.533    -343.905     -76.730
  H      224.968    -347.644     -77.550
  H      224.171    -346.054     -77.556
  H      223.618    -347.340     -76.437
  H      220.490    -346.196     -69.834
  H      221.578    -345.259     -70.831
  H      221.120    -344.674     -69.249

 3  4  5  6  7  8  9  10  11  12  13  21  23  27  28  29  30  32 0
 6-311+G(2d,p)
 ****
 34  35 0
 6-311+G(2d,p)
 ****
 1  2  14  15  16  17  18  19  20  22  24  25  26 0
 3-21G
 ****
 31  33  36  37  38  39  40  41  42  43  44  45  46 0
 3-21G
 ****


