%nproc=1
%NoSave
%Mem=1900MB
#P OB98/GEN NMR

erre ene a

0 1
  C     -169.182     197.035     228.683
  O     -170.074     198.124     228.565
  P     -169.646     199.589     229.046
  C     -168.277     200.181     226.965
  O     -168.232     199.928     228.364
  C     -167.048     200.963     226.502
  O     -167.084     201.090     225.053
  C     -166.928     202.377     227.082
  O     -165.530     202.644     227.245
  C     -167.483     203.246     225.964
  O     -167.059     204.601     226.053
  C     -166.953     202.495     224.749
  N     -167.930     206.081     221.240
  C     -167.189     206.110     222.369
  N     -166.997     205.118     223.264
  C     -167.668     204.012     222.901
  C     -168.488     203.846     221.796
  C     -168.598     204.947     220.928
  N     -169.322     204.929     219.756
  N     -169.049     202.583     221.798
  C     -168.573     202.003     222.880
  N     -167.684     202.805     223.540
  O     -169.694     199.814     230.522
  O     -170.659     200.560     228.283
  H     -167.649     205.145     225.500
  H     -171.327     200.907     228.911
  H     -166.674     207.043     222.576
  H     -168.834     201.011     223.226
  H     -165.893     202.703     224.563
  H     -168.578     203.230     225.995
  H     -167.460     202.518     228.027
  H     -166.155     200.370     226.746
  H     -169.174     200.768     226.755
  H     -169.224     205.722     219.144
  H     -169.605     204.032     219.367
  H     -168.352     199.233     226.418
  P     -165.046     203.779     228.272
  C     -164.859     202.020     230.129
  O     -165.432     203.259     229.735
  O     -165.488     205.164     227.946
  O     -163.448     203.641     228.249
  H     -163.047     204.455     228.616
  H     -165.437     201.201     229.695
  H     -164.890     201.946     231.219
  H     -163.820     201.951     229.798
  H     -169.650     196.148     228.310
  H     -168.923     196.896     229.712
  H     -168.297     197.236     228.117

 3  4  5  6  7  8  9  10  11  12  22  25  29  30  31  32 0
 6-311+G(2d,p)
 ****
 33  36  37 0
 6-311+G(2d,p)
 ****
 1  2  13  14  15  16  17  18  19  20  21  23  24  26 0
 3-21G
 ****
 27  28  34  35  38  39  40  41  42  43  44  45  46  47  48 0
 3-21G
 ****


