%nproc=1
%NoSave
%Mem=1900MB
#P OB98/GEN NMR

erre ene a

0 1
  C      163.674     714.289    -194.957
  O      162.428     714.009    -195.560
  H      164.128     715.142    -195.471
  H      164.345     713.431    -195.047
  H      163.531     714.546    -193.903
  P      161.635     712.718    -195.026
  C      159.721     713.422    -196.639
  O      160.522     712.364    -196.121
  C      158.754     712.874    -197.678
  O      159.469     712.578    -198.907
  C      158.092     711.559    -197.283
  O      157.014     711.745    -196.380
  C      157.632     711.042    -198.633
  O      156.368     711.604    -199.018
  C      158.760     711.518    -199.577
  N      159.645     710.420    -199.956
  C      160.152     710.483    -201.252
  O      159.886     711.385    -202.049
  N      160.946     709.432    -201.632
  C      161.240     708.332    -200.876
  O      161.917     707.401    -201.294
  C      160.664     708.317    -199.519
  C      159.900     709.339    -199.130
  O      160.793     713.294    -193.796
  O      162.506     711.573    -194.622
  H      161.189     712.995    -192.955
  H      156.086     711.108    -199.812
  H      161.327     709.459    -202.563
  H      160.873     707.462    -198.894
  H      159.452     709.350    -198.143
  H      158.332     711.948    -200.486
  H      157.515     709.959    -198.619
  H      158.840     710.868    -196.870
  H      157.997     713.634    -197.894
  H      160.364     714.175    -197.114
  H      159.183     713.893    -195.812
  P      156.848     710.685    -195.183
  C      154.349     711.385    -194.722
  O      155.279     710.380    -195.090
  O      157.155     711.620    -193.919
  O      157.739     709.493    -195.326
  H      156.942     712.551    -194.097
  H      153.361     710.974    -194.721
  H      154.399     712.191    -195.423
  H      154.585     711.748    -193.744

 6  7  8  9  10  11  12  13  14  15  16  27  31  32  33  34  35 0
 6-311+G(2d,p)
 ****
 36  37 0
 6-311+G(2d,p)
 ****
 1  2  3  4  5  17  18  19  20  21  22  23  24  25 0
 3-21G
 ****
 26  28  29  30  38  39  40  41  42  43  44  45 0
 3-21G
 ****


