%nproc=1
%NoSave
%Mem=1900MB
#P OB98/GEN NMR

erre ene a

0 1
  C      -44.630      44.362      22.510
  O      -43.649      43.361      22.284
  P      -43.151      42.504      23.548
  C      -41.674      42.993      25.639
  O      -42.300      43.506      24.469
  C      -40.326      43.667      25.857
  O      -39.398      43.314      24.808
  C      -40.381      45.190      25.843
  O      -40.809      45.726      27.088
  C      -38.919      45.533      25.596
  O      -38.175      45.435      26.825
  C      -38.491      44.427      24.621
  N      -35.965      46.886      20.985
  C      -35.540      46.467      22.231
  N      -34.278      46.808      22.581
  N      -36.280      45.777      23.059
  C      -37.521      45.519      22.580
  C      -38.059      45.877      21.364
  C      -37.232      46.650      20.460
  O      -37.570      47.092      19.367
  N      -39.343      45.424      21.234
  C      -39.588      44.795      22.365
  N      -38.529      44.860      23.233
  O      -42.034      41.543      22.924
  O      -44.223      41.738      24.245
  H      -38.046      44.480      26.999
  H      -41.855      40.797      23.533
  H      -35.360      47.420      20.385
  H      -40.520      44.291      22.607
  H      -37.479      44.063      24.836
  H      -38.779      46.550      25.218
  H      -33.681      47.393      22.011
  H      -40.989      45.560      25.007
  H      -33.961      46.574      23.511
  H      -39.915      43.303      26.808
  H      -41.532      41.914      25.525
  H      -42.330      43.161      26.501
  P      -41.975      46.831      27.033
  C      -42.017      49.252      26.086
  O      -41.242      48.199      26.631
  O      -42.350      47.031      28.577
  O      -43.157      46.447      26.207
  H      -43.273      47.340      28.665
  H      -41.428      50.174      26.121
  H      -42.936      49.403      26.656
  H      -42.261      49.032      25.044
  H      -44.863      44.848      21.586
  H      -44.252      45.082      23.205
  H      -45.514      43.911      22.909

 3  4  5  6  7  8  9  10  11  12  23  26  30  31 0
 6-311+G(2d,p)
 ****
 33  35  36  37  38 0
 6-311+G(2d,p)
 ****
 1  2  13  14  15  16  17  18  19  20  21  22  24  25 0
 3-21G
 ****
 27  28  29  32  34  39  40  41  42  43  44  45  46  47  48  49 0
 3-21G
 ****


