%nproc=1
%NoSave
%Mem=1900MB
#P OB98/GEN NMR

erre ene a

0 1
  C     -911.670       0.185      25.808
  O     -911.071       1.334      26.369
  H     -910.926      -0.612      25.760
  H     -912.015       0.406      24.793
  H     -912.512      -0.162      26.416
  P     -912.004       2.554      26.825
  C     -911.850       3.470      24.419
  O     -911.708       3.757      25.802
  C     -911.608       4.725      23.576
  O     -912.626       5.715      23.894
  C     -910.239       5.382      23.817
  O     -909.835       5.998      22.586
  C     -910.579       6.434      24.846
  O     -909.571       7.421      24.940
  C     -911.944       6.903      24.335
  N     -912.703       7.628      25.356
  C     -912.510       9.005      25.414
  O     -911.720       9.606      24.684
  N     -913.217       9.670      26.371
  C     -914.041       9.095      27.300
  O     -914.627       9.741      28.165
  C     -914.174       7.634      27.217
  C     -913.513       6.977      26.262
  O     -911.923       2.927      28.267
  O     -913.481       2.096      26.408
  H     -908.746       7.029      25.294
  H     -914.136       2.487      27.017
  H     -913.098      10.668      26.424
  H     -914.810       7.146      27.944
  H     -913.596       5.899      26.177
  H     -911.826       7.565      23.471
  H     -910.678       5.985      25.844
  H     -909.477       4.673      24.155
  H     -911.738       4.466      22.517
  H     -912.876       3.105      24.255
  H     -911.147       2.685      24.133
  P     -909.399       5.139      21.302
  C     -906.936       5.694      21.826
  O     -907.943       5.632      20.823
  O     -910.425       5.105      20.217
  O     -909.123       3.669      21.869
  H     -909.289       3.007      21.169
  H     -906.019       6.032      21.390
  H     -906.793       4.721      22.248
  H     -907.239       6.375      22.594

 6  7  8  9  10  11  12  13  14  15  16  26  31  32  33  34  35 0
 6-311+G(2d,p)
 ****
 36  37 0
 6-311+G(2d,p)
 ****
 1  2  3  4  5  17  18  19  20  21  22  23  24  25 0
 3-21G
 ****
 27  28  29  30  38  39  40  41  42  43  44  45 0
 3-21G
 ****


