%nproc=1
%NoSave
%Mem=1900MB
#P OB98/GEN NMR

erre ene a

0 1
  C      159.763     259.060     472.755
  O      158.568     258.815     472.039
  H      160.585     259.168     472.041
  H      159.989     258.224     473.422
  H      159.680     259.985     473.333
  P      157.213     258.613     472.872
  C      157.047     256.153     473.650
  O      157.523     257.464     473.944
  C      156.654     255.437     474.934
  O      157.824     255.163     475.737
  C      155.697     256.233     475.822
  O      154.364     256.105     475.354
  C      155.929     255.547     477.162
  O      155.247     254.284     477.185
  C      157.454     255.327     477.131
  N      161.923     256.668     479.115
  C      161.471     255.423     478.715
  N      162.310     254.386     478.912
  N      160.288     255.215     478.189
  C      159.531     256.340     478.122
  C      159.870     257.621     478.497
  C      161.197     257.845     479.024
  O      161.652     258.934     479.374
  N      158.818     258.487     478.335
  C      157.860     257.738     477.822
  N      158.236     256.423     477.688
  O      155.970     258.372     472.070
  O      157.106     259.936     473.765
  H      155.713     253.723     477.832
  H      156.580     260.622     473.317
  H      162.840     256.758     479.533
  H      156.878     258.098     477.533
  H      157.752     254.416     477.664
  H      155.574     256.133     478.008
  H      163.088     254.440     479.559
  H      156.001     257.282     475.910
  H      161.973     253.462     478.675
  H      156.223     254.466     474.661
  H      157.860     255.619     473.142
  H      156.185     256.207     472.978
  P      153.319     257.319     475.481
  C      152.334     256.190     477.588
  O      152.928     257.360     477.035
  O      152.163     257.252     474.545
  O      154.209     258.634     475.314
  H      154.316     258.924     474.372
  H      152.125     256.352     478.625
  H      153.008     255.365     477.485
  H      151.423     255.974     477.070

 6  7  8  9  10  11  12  13  14  15  26  29  33  34 0
 6-311+G(2d,p)
 ****
 36  38  39  40  41 0
 6-311+G(2d,p)
 ****
 1  2  3  4  5  16  17  18  19  20  21  22  23  24  25 0
 3-21G
 ****
 27  28  30  31  32  35  37  42  43  44  45  46  47 0
 3-21G
 ****
 48  49 0
 3-21G
 ****


