%nproc=1
%NoSave
%Mem=1900MB
#P OB98/GEN NMR

erre ene a

0 1
  C     1942.710    -236.499    -340.611
  O     1943.128    -235.167    -340.389
  H     1941.771    -236.466    -341.162
  H     1942.530    -236.997    -339.650
  H     1943.454    -237.038    -341.179
  P     1944.463    -234.952    -339.521
  C     1945.819    -234.757    -341.693
  O     1945.654    -235.474    -340.482
  C     1946.939    -235.410    -342.536
  O     1948.177    -235.355    -341.772
  C     1946.698    -236.873    -342.889
  O     1947.229    -237.139    -344.213
  C     1947.508    -237.640    -341.897
  O     1947.836    -238.943    -342.316
  C     1948.675    -236.680    -341.696
  N     1952.781    -238.805    -339.501
  C     1952.454    -238.587    -340.811
  N     1951.360    -237.985    -341.295
  C     1950.566    -237.550    -340.273
  C     1950.759    -237.697    -338.943
  C     1951.926    -238.385    -338.513
  N     1952.239    -238.661    -337.223
  N     1949.681    -237.160    -338.210
  C     1948.862    -236.695    -339.163
  N     1949.346    -236.927    -340.417
  O     1944.455    -235.562    -338.163
  O     1944.650    -233.366    -339.570
  H     1946.990    -239.420    -342.483
  H     1944.535    -233.018    -340.465
  H     1953.176    -238.931    -341.528
  H     1947.930    -236.186    -338.956
  H     1949.458    -236.825    -342.491
  H     1946.923    -237.737    -340.949
  H     1945.610    -237.143    -342.875
  H     1947.095    -234.786    -343.444
  H     1946.038    -233.725    -341.537
  H     1953.105    -239.133    -337.033
  H     1951.617    -238.334    -336.479
  H     1944.864    -234.824    -342.278
  P     1946.213    -237.599    -345.378
  C     1946.848    -236.083    -347.374
  O     1945.892    -236.325    -346.344
  O     1944.991    -238.327    -344.936
  O     1947.128    -238.523    -346.347
  H     1946.633    -239.321    -346.557
  H     1946.547    -235.231    -347.947
  H     1946.909    -236.939    -348.012
  H     1947.806    -235.897    -346.935

 6  7  8  9  10  11  12  13  14  15  25  28  32  33  34  35 0
 6-311+G(2d,p)
 ****
 36  39  40 0
 6-311+G(2d,p)
 ****
 1  2  3  4  5  16  17  18  19  20  21  22  23  24 0
 3-21G
 ****
 26  27  29  30  31  37  38  41  42  43  44  45  46  47 0
 3-21G
 ****
 48 0
 3-21G
 ****


