%nproc=1
%NoSave
%Mem=1900MB
#P OB98/GEN NMR

erre ene a

0 1
  C      192.849    -920.541     259.025
  O      193.099    -920.775     260.391
  H      192.083    -919.766     258.935
  H      192.473    -921.458     258.554
  H      193.753    -920.210     258.518
  P      194.266    -921.823     260.750
  C      192.846    -923.943     261.222
  O      193.715    -923.270     260.318
  C      192.814    -925.444     260.929
  O      192.356    -925.646     259.555
  C      194.187    -926.142     261.068
  O      193.959    -927.463     261.571
  C      194.646    -926.257     259.623
  O      195.629    -927.282     259.441
  C      193.310    -926.531     258.932
  N      195.255    -928.319     254.643
  C      195.315    -928.816     255.941
  N      196.012    -929.962     256.107
  N      194.756    -928.232     256.955
  C      194.075    -927.104     256.632
  C      193.929    -926.510     255.398
  C      194.582    -927.155     254.273
  O      194.575    -926.756     253.109
  N      193.184    -925.375     255.478
  C      192.869    -925.269     256.766
  N      193.382    -926.301     257.498
  O      194.217    -921.860     262.353
  O      195.619    -921.474     260.240
  H      195.371    -928.051     259.984
  H      194.856    -921.223     262.725
  H      195.713    -928.799     253.894
  H      192.275    -924.475     257.202
  H      192.968    -927.562     259.071
  H      195.077    -925.304     259.291
  H      196.433    -930.488     255.360
  H      194.893    -925.615     261.709
  H      196.031    -930.360     257.040
  H      192.068    -925.908     261.588
  H      191.826    -923.538     261.107
  H      193.184    -923.775     262.253
  P      193.718    -927.637     263.154
  C      195.515    -929.450     263.677
  O      195.103    -928.090     263.817
  O      192.829    -928.967     263.225
  O      193.035    -926.476     263.793
  H      192.274    -928.947     264.025
  H      196.453    -929.591     264.172
  H      195.620    -929.686     262.639
  H      194.780    -930.092     264.116

 6  7  8  9  10  11  12  13  14  15  26  29  33  34 0
 6-311+G(2d,p)
 ****
 36  38  39  40  41 0
 6-311+G(2d,p)
 ****
 1  2  3  4  5  16  17  18  19  20  21  22  23  24  25 0
 3-21G
 ****
 27  28  30  31  32  35  37  42  43  44  45  46  47 0
 3-21G
 ****
 48  49 0
 3-21G
 ****


