%nproc=1
%NoSave
%Mem=1900MB
#P OB98/GEN NMR

erre ene a

0 1
  C     -456.530     266.703    -589.070
  O     -455.499     267.655    -589.270
  P     -455.401     268.495    -590.640
  C     -453.277     268.064    -592.057
  O     -454.543     267.567    -591.624
  C     -452.202     267.688    -591.042
  O     -452.201     266.255    -590.846
  C     -450.776     268.056    -591.459
  O     -450.545     269.438    -591.296
  C     -449.970     267.136    -590.550
  O     -449.873     267.698    -589.222
  C     -450.839     265.864    -590.516
  N     -450.358     264.824    -591.427
  C     -450.040     263.601    -590.843
  O     -450.156     263.409    -589.629
  N     -449.609     262.573    -591.657
  C     -449.488     262.781    -592.932
  N     -449.116     261.713    -593.703
  C     -449.759     264.074    -593.577
  C     -450.199     265.040    -592.778
  O     -454.885     269.886    -590.483
  O     -456.869     268.410    -591.264
  H     -449.650     268.643    -589.335
  H     -457.468     269.137    -590.960
  H     -449.644     264.199    -594.648
  H     -450.445     266.021    -593.179
  H     -450.873     265.460    -589.497
  H     -448.946     266.957    -590.912
  H     -450.606     267.784    -592.507
  H     -452.465     268.164    -590.079
  H     -449.117     260.809    -593.244
  H     -453.338     269.153    -592.132
  H     -449.279     261.704    -594.707
  H     -453.049     267.646    -593.051
  P     -449.374     270.106    -592.166
  C     -447.178     270.585    -590.863
  O     -447.998     269.611    -591.503
  O     -449.472     271.657    -591.802
  O     -449.497     269.861    -593.646
  H     -449.930     272.152    -592.501
  H     -446.430     270.059    -590.278
  H     -447.780     271.217    -590.204
  H     -446.671     271.190    -591.627
  H     -456.421     266.256    -588.104
  H     -456.467     265.945    -589.823
  H     -457.481     267.189    -589.133

 3  4  5  6  7  8  9  10  11  12  13  23  27  28  29  30  32 0
 6-311+G(2d,p)
 ****
 34  35 0
 6-311+G(2d,p)
 ****
 1  2  14  15  16  17  18  19  20  21  22  24  25  26 0
 3-21G
 ****
 31  33  36  37  38  39  40  41  42  43  44  45  46 0
 3-21G
 ****


