%nproc=1
%NoSave
%Mem=1900MB
#P OB98/GEN NMR

erre ene a

0 1
  C      -73.696     136.663       4.459
  O      -74.770     136.954       5.356
  P      -75.527     135.685       5.987
  C      -77.760     136.440       4.912
  O      -77.087     136.047       6.099
  C      -79.238     136.743       5.179
  O      -80.047     135.536       5.067
  C      -79.507     137.331       6.569
  O      -80.594     138.256       6.429
  C      -79.981     136.126       7.359
  O      -80.685     136.514       8.536
  C      -80.815     135.426       6.287
  N      -83.870     132.343       8.866
  C      -83.793     133.721       8.862
  N      -84.700     134.378       9.619
  N      -82.910     134.398       8.175
  C      -82.094     133.609       7.433
  C      -82.079     132.237       7.341
  C      -83.043     131.500       8.132
  O      -83.154     130.281       8.167
  N      -81.119     131.802       6.456
  C      -80.518     132.917       6.074
  N      -81.104     134.037       6.593
  O      -75.023     135.681       7.506
  O      -75.217     134.399       5.296
  H      -81.355     137.181       8.272
  H      -74.320     135.016       7.626
  H      -84.559     131.872       9.427
  H      -79.674     132.968       5.407
  H      -81.785     135.916       6.130
  H      -79.125     135.507       7.655
  H      -85.438     133.921      10.133
  H      -78.644     137.826       7.027
  H      -84.692     135.390       9.602
  H      -79.588     137.442       4.410
  H      -77.687     135.649       4.163
  H      -77.249     137.311       4.485
  P      -80.329     139.786       6.815
  C      -82.388     140.521       8.200
  O      -81.754     140.504       6.937
  O      -79.715     140.399       5.467
  O      -79.395     139.987       7.966
  H      -79.006     141.032       5.689
  H      -83.052     141.387       8.250
  H      -81.664     140.585       9.017
  H      -82.982     139.611       8.318
  H      -73.270     137.578       4.104
  H      -74.067     136.097       3.630
  H      -72.947     136.096       4.971

 3  4  5  6  7  8  9  10  11  12  23  26  30  31 0
 6-311+G(2d,p)
 ****
 33  35  36  37  38 0
 6-311+G(2d,p)
 ****
 1  2  13  14  15  16  17  18  19  20  21  22  24  25 0
 3-21G
 ****
 27  28  29  32  34  39  40  41  42  43  44  45  46  47  48  49 0
 3-21G
 ****


