%nproc=1
%NoSave
%Mem=1900MB
#P OB98/GEN NMR

erre ene a

0 1
  C       -0.534    -200.277    -516.646
  O        0.309    -201.374    -516.943
  H       -1.518    -200.458    -517.088
  H       -0.122    -199.358    -517.067
  H       -0.647    -200.170    -515.562
  P        1.837    -201.247    -516.462
  C        0.877    -201.801    -514.100
  O        1.714    -200.966    -514.886
  C        1.347    -201.784    -512.651
  O        1.228    -200.456    -512.091
  C        0.539    -202.686    -511.722
  O        0.901    -204.055    -511.832
  C        0.924    -202.107    -510.372
  O        2.250    -202.541    -510.020
  C        0.899    -200.589    -510.682
  N       -0.397    -199.969    -510.396
  C       -0.492    -199.222    -509.215
  O        0.479    -199.119    -508.460
  N       -1.691    -198.639    -508.894
  C       -2.708    -198.775    -509.687
  N       -3.879    -198.185    -509.309
  C       -2.651    -199.537    -510.946
  C       -1.484    -200.099    -511.235
  O        2.296    -199.824    -517.036
  O        2.736    -202.380    -516.836
  H        2.838    -202.265    -510.744
  H        3.192    -199.596    -516.686
  H       -3.530    -199.631    -511.571
  H       -1.367    -200.676    -512.147
  H        1.671    -200.063    -510.112
  H        0.256    -202.419    -509.564
  H       -0.539    -202.553    -511.867
  H        2.413    -202.051    -512.636
  H       -3.903    -197.723    -508.411
  H        0.928    -202.819    -514.503
  H       -4.763    -198.388    -509.769
  H       -0.159    -201.449    -514.150
  P       -0.265    -205.150    -511.659
  C       -0.816    -205.085    -514.204
  O       -1.296    -204.925    -512.873
  O       -1.072    -204.618    -510.387
  O        0.213    -206.558    -511.478
  H       -1.364    -205.360    -509.822
  H       -1.613    -204.904    -514.895
  H       -0.451    -206.082    -514.334
  H       -0.023    -204.389    -514.383

 6  7  8  9  10  11  12  13  14  15  16  26  30  31  32  33  35 0
 6-311+G(2d,p)
 ****
 37  38 0
 6-311+G(2d,p)
 ****
 1  2  3  4  5  17  18  19  20  21  22  23  24  25 0
 3-21G
 ****
 27  28  29  34  36  39  40  41  42  43  44  45  46 0
 3-21G
 ****


