%nproc=1
%NoSave
%Mem=1900MB
#P OB98/GEN NMR

erre ene a

0 1
  C     -707.332     278.601    -489.467
  O     -707.576     279.986    -489.192
  P     -707.278     281.044    -490.363
  C     -709.655     280.927    -491.411
  O     -708.259     280.722    -491.598
  C     -710.415     280.842    -492.747
  O     -710.010     281.932    -493.633
  C     -710.174     279.539    -493.518
  O     -711.342     279.238    -494.276
  C     -709.061     279.919    -494.468
  O     -708.956     278.998    -495.564
  C     -709.481     281.338    -494.840
  N     -707.909     284.147    -498.728
  C     -709.087     283.447    -498.548
  N     -710.001     283.538    -499.550
  N     -709.358     282.721    -497.498
  C     -708.372     282.758    -496.566
  C     -707.153     283.399    -496.628
  C     -706.864     284.180    -497.823
  O     -705.834     284.802    -498.034
  N     -706.400     283.173    -495.495
  C     -707.161     282.379    -494.761
  N     -708.376     282.130    -495.353
  O     -705.845     280.575    -490.901
  O     -707.259     282.463    -489.909
  H     -709.826     278.996    -496.027
  H     -705.171     281.232    -490.634
  H     -707.756     284.680    -499.574
  H     -706.888     281.967    -493.811
  H     -710.267     281.359    -495.608
  H     -708.094     279.922    -493.938
  H     -709.887     284.123    -500.362
  H     -709.919     278.683    -492.889
  H     -710.882     283.071    -499.430
  H     -711.492     280.965    -492.547
  H     -709.835     281.900    -490.951
  H     -710.032     280.185    -490.699
  P     -712.080     277.854    -493.957
  C     -714.406     278.777    -493.273
  O     -713.198     278.183    -492.851
  O     -710.995     277.016    -493.150
  O     -712.577     277.115    -495.171
  H     -711.157     276.068    -493.244
  H     -715.193     278.020    -493.281
  H     -714.326     279.223    -494.268
  H     -714.690     279.569    -492.556
  H     -707.573     278.018    -488.603
  H     -706.300     278.463    -489.714
  H     -707.941     278.288    -490.289

 3  4  5  6  7  8  9  10  11  12  23  26  30  31 0
 6-311+G(2d,p)
 ****
 33  35  36  37  38 0
 6-311+G(2d,p)
 ****
 1  2  13  14  15  16  17  18  19  20  21  22  24  25 0
 3-21G
 ****
 27  28  29  32  34  39  40  41  42  43  44  45  46  47  48  49 0
 3-21G
 ****


