%nproc=1
%NoSave
%Mem=1900MB
#P OB98/GEN NMR

erre ene a

0 1
  C      368.410    -892.050    -748.858
  O      368.227    -893.050    -747.850
  P      366.852    -893.890    -747.805
  C      367.313    -896.390    -748.423
  O      366.960    -895.090    -748.867
  C      366.704    -897.460    -749.345
  O      365.267    -897.480    -749.201
  C      366.953    -897.210    -750.827
  O      368.277    -897.580    -751.207
  C      365.886    -898.090    -751.458
  O      366.311    -899.480    -751.523
  C      364.709    -897.940    -750.452
  N      363.661    -897.060    -750.956
  C      362.632    -897.660    -751.659
  O      362.597    -898.860    -751.913
  N      361.629    -896.810    -752.086
  C      361.608    -895.460    -751.951
  O      360.706    -894.760    -752.372
  C      362.781    -894.860    -751.266
  C      363.731    -895.670    -750.816
  O      365.838    -892.880    -748.545
  O      366.356    -894.250    -746.452
  H      365.539    -900.000    -751.798
  H      364.933    -893.050    -748.218
  H      360.861    -897.240    -752.582
  H      362.819    -893.800    -751.156
  H      364.607    -895.260    -750.314
  H      364.264    -898.920    -750.239
  H      365.637    -897.780    -752.471
  H      366.762    -896.170    -751.068
  H      367.086    -898.430    -749.023
  H      366.940    -896.540    -747.396
  H      368.407    -896.480    -748.402
  P      368.996    -896.650    -752.287
  C      370.593    -895.890    -750.364
  O      369.778    -895.530    -751.462
  O      367.728    -895.900    -752.934
  O      369.802    -897.450    -753.270
  H      367.026    -895.740    -752.273
  H      371.068    -896.850    -750.524
  H      369.978    -895.930    -749.461
  H      371.359    -895.130    -750.249
  H      369.371    -891.596    -748.739
  H      367.649    -891.304    -748.763
  H      368.346    -892.503    -749.825

 3  4  5  6  7  8  9  10  11  12  13  23  28  29  30  31  32 0
 6-311+G(2d,p)
 ****
 33  34 0
 6-311+G(2d,p)
 ****
 1  2  14  15  16  17  18  19  20  21  22  24  25  26 0
 3-21G
 ****
 27  35  36  37  38  39  40  41  42  43  44  45 0
 3-21G
 ****


