%nproc=1
%NoSave
%Mem=1900MB
#P OB98/GEN NMR

erre ene a

0 1
  C      173.470    -108.934    -146.611
  O      173.740    -110.293    -146.341
  H      174.404    -108.373    -146.539
  H      172.761    -108.528    -145.884
  H      173.072    -108.819    -147.624
  P      172.503    -111.316    -146.270
  C      170.721    -111.721    -144.432
  O      171.645    -110.809    -145.008
  C      170.347    -111.273    -143.021
  O      171.437    -111.494    -142.100
  C      170.019    -109.788    -142.884
  O      168.752    -109.441    -143.417
  C      170.075    -109.645    -141.373
  O      168.882    -110.202    -140.791
  C      171.312    -110.511    -141.033
  N      172.539    -109.730    -140.908
  C      172.503    -108.635    -140.036
  O      171.476    -108.363    -139.417
  N      173.622    -107.847    -139.915
  C      174.678    -108.116    -140.616
  N      175.743    -107.276    -140.494
  C      174.770    -109.269    -141.531
  C      173.677    -110.022    -141.634
  O      172.847    -112.771    -146.265
  O      171.561    -110.888    -147.492
  H      168.165    -109.558    -140.935
  H      170.786    -111.499    -147.498
  H      175.670    -109.444    -142.099
  H      173.657    -110.877    -142.300
  H      171.153    -111.071    -140.103
  H      170.143    -108.606    -141.039
  H      170.809    -109.173    -143.323
  H      169.513    -111.904    -142.685
  H      175.631    -106.472    -139.889
  H      171.184    -112.713    -144.420
  H      176.480    -107.251    -141.191
  H      169.808    -111.763    -145.034
  P      168.719    -108.514    -144.728
  C      169.151    -105.986    -145.193
  O      168.942    -107.004    -144.228
  O      167.179    -108.548    -145.151
  O      169.630    -108.928    -145.841
  H      167.012    -109.244    -145.816
  H      169.281    -105.046    -144.698
  H      168.303    -105.932    -145.843
  H      170.026    -106.212    -145.766

 6  7  8  9  10  11  12  13  14  15  16  26  30  31  32  33  35 0
 6-311+G(2d,p)
 ****
 37  38 0
 6-311+G(2d,p)
 ****
 1  2  3  4  5  17  18  19  20  21  22  23  24  25 0
 3-21G
 ****
 27  28  29  34  36  39  40  41  42  43  44  45  46 0
 3-21G
 ****


