%nproc=1
%NoSave
%Mem=1900MB
#P OB98/GEN NMR

erre ene a

0 1
  C      -91.618     -40.384     -11.762
  O      -92.273     -39.129     -11.562
  P      -91.429     -37.821     -11.172
  C      -91.779     -38.323      -8.685
  O      -90.824     -38.002      -9.692
  C      -91.142     -38.847      -7.389
  O      -90.551     -40.155      -7.591
  C      -90.050     -37.947      -6.795
  O      -90.144     -38.097      -5.375
  C      -88.782     -38.590      -7.328
  O      -87.625     -38.207      -6.588
  C      -89.152     -40.076      -7.251
  N      -88.330     -40.901      -8.134
  C      -87.210     -41.514      -7.568
  O      -86.915     -41.303      -6.387
  N      -86.420     -42.313      -8.362
  C      -86.669     -42.403      -9.634
  N      -85.836     -43.187     -10.373
  C      -87.794     -41.703     -10.291
  C      -88.581     -40.984      -9.486
  O      -92.149     -36.524     -11.391
  O      -90.134     -37.907     -12.116
  H      -87.669     -38.637      -5.704
  H      -89.822     -37.001     -12.317
  H      -87.947     -41.789     -11.358
  H      -89.432     -40.441      -9.875
  H      -89.040     -40.453      -6.224
  H      -88.621     -38.290      -8.370
  H      -90.146     -36.897      -7.088
  H      -91.951     -38.978      -6.659
  H      -85.062     -43.629      -9.886
  H      -92.463     -39.085      -9.081
  H      -85.871     -43.235     -11.383
  H      -92.382     -37.432      -8.468
  P      -90.893     -37.023      -4.455
  C      -88.843     -36.384      -3.054
  O      -89.792     -35.944      -4.013
  O      -91.684     -37.601      -3.326
  O      -91.834     -36.194      -5.462
  H      -92.516     -35.727      -4.950
  H      -88.035     -35.651      -2.995
  H      -88.426     -37.356      -3.339
  H      -89.323     -36.467      -2.076
  H      -92.344     -41.129     -12.013
  H      -91.111     -40.669     -10.864
  H      -90.909     -40.293     -12.558

 3  4  5  6  7  8  9  10  11  12  13  23  27  28  29  30  32 0
 6-311+G(2d,p)
 ****
 34  35 0
 6-311+G(2d,p)
 ****
 1  2  14  15  16  17  18  19  20  21  22  24  25  26 0
 3-21G
 ****
 31  33  36  37  38  39  40  41  42  43  44  45  46 0
 3-21G
 ****


