%nproc=1
%NoSave
%Mem=1900MB
#P OB98/GEN NMR

erre ene a

0 1
  C      243.143     574.088       3.694
  O      243.726     573.091       2.879
  H      242.371     573.650       4.332
  H      243.921     574.517       4.331
  H      242.714     574.882       3.078
  P      242.748     572.336       1.854
  C      244.160     570.210       2.349
  O      243.550     571.032       1.367
  C      245.057     569.182       1.675
  O      244.306     568.429       0.694
  C      246.241     569.781       0.918
  O      247.322     570.103       1.780
  C      246.593     568.624       0.000
  O      247.313     567.619       0.736
  C      245.209     568.105      -0.402
  N      244.417     567.347      -5.400
  C      244.967     566.565      -4.445
  N      245.148     566.844      -3.137
  C      244.682     568.068      -2.846
  C      244.105     568.980      -3.712
  C      243.968     568.571      -5.049
  N      243.417     569.373      -6.028
  N      243.788     570.153      -3.048
  C      244.143     569.935      -1.796
  N      244.700     568.698      -1.625
  O      242.757     573.276       0.559
  O      241.368     572.066       2.354
  H      247.559     566.925       0.095
  H      241.970     573.100       0.010
  H      245.313     565.589      -4.777
  H      244.018     570.641      -0.986
  H      245.188     567.015      -0.528
  H      247.228     568.924      -0.838
  H      245.938     570.643       0.315
  H      245.403     568.476       2.443
  H      243.382     569.694       2.921
  H      243.532     569.061      -6.982
  H      243.221     570.339      -5.807
  H      244.743     570.837       3.034
  P      247.715     571.651       1.920
  C      250.203     572.071       1.292
  O      249.269     571.672       2.292
  O      246.996     572.093       3.275
  O      247.310     572.505       0.759
  H      246.802     573.044       3.278
  H      251.194     572.032       1.694
  H      249.984     573.070       0.978
  H      250.132     571.410       0.454

 6  7  8  9  10  11  12  13  14  15  25  28  32  33  34  35 0
 6-311+G(2d,p)
 ****
 36  39  40 0
 6-311+G(2d,p)
 ****
 1  2  3  4  5  16  17  18  19  20  21  22  23  24 0
 3-21G
 ****
 26  27  29  30  31  37  38  41  42  43  44  45  46  47 0
 3-21G
 ****
 48 0
 3-21G
 ****


