%nproc=1
%NoSave
%Mem=1900MB
#P OB98/GEN NMR

erre ene a

0 1
  C       58.795      -5.106      71.638
  O       58.036      -5.899      72.530
  H       59.686      -4.748      72.158
  H       58.206      -4.246      71.307
  H       59.105      -5.700      70.774
  P       56.686      -6.536      71.945
  C       55.711      -6.340      74.356
  O       55.904      -7.149      73.204
  C       55.414      -7.215      75.579
  O       56.678      -7.655      76.157
  C       54.646      -6.486      76.694
  O       53.869      -7.463      77.406
  C       55.779      -5.993      77.578
  O       55.296      -5.575      78.834
  C       56.683      -7.222      77.536
  N       60.014      -7.792      81.373
  C       58.745      -8.225      81.213
  N       57.925      -8.046      80.159
  C       58.544      -7.354      79.187
  C       59.835      -6.853      79.203
  C       60.589      -7.093      80.366
  N       61.878      -6.647      80.536
  N       60.118      -6.190      78.022
  C       59.014      -6.291      77.308
  N       58.036      -6.976      77.974
  O       57.201      -7.826      71.151
  O       55.873      -5.634      71.079
  H       54.676      -4.823      78.736
  H       57.315      -7.612      70.207
  H       58.331      -8.790      82.045
  H       58.867      -5.880      76.316
  H       56.282      -8.043      78.143
  H       56.276      -5.128      77.128
  H       53.987      -5.697      76.322
  H       54.884      -8.119      75.254
  H       54.870      -5.665      74.168
  H       56.613      -5.749      74.541
  H       62.343      -6.848      81.407
  H       62.313      -6.110      79.800
  P       52.264      -7.404      77.317
  C       51.764      -7.055      79.862
  O       51.654      -7.891      78.718
  O       51.938      -8.652      76.362
  O       51.692      -6.145      76.753
  H       51.106      -8.485      75.880
  H       51.305      -7.536      80.701
  H       51.272      -6.124      79.672
  H       52.797      -6.876      80.075

 6  7  8  9  10  11  12  13  14  15  25  28  32  33  34  35 0
 6-311+G(2d,p)
 ****
 36  37  40 0
 6-311+G(2d,p)
 ****
 1  2  3  4  5  16  17  18  19  20  21  22  23  24 0
 3-21G
 ****
 26  27  29  30  31  38  39 41  42  43  44  45  46  47  48 0
 3-21G
 ****


