%nproc=1
%NoSave
%Mem=1900MB
#P OB98/GEN NMR

erre ene a

0 1
  C       20.389    -603.190     127.653
  O       19.316    -602.763     128.485
  P       19.425    -602.464     130.044
  C       19.575    -604.922     130.965
  O       20.210    -603.670     130.743
  C       20.184    -605.644     132.180
  O       20.000    -604.800     133.360
  C       19.493    -606.984     132.470
  O       20.401    -608.023     132.817
  C       18.442    -606.609     133.500
  O       17.970    -607.719     134.253
  C       19.147    -605.510     134.293
  N       15.898    -604.732     138.152
  C       16.528    -605.900     137.760
  N       16.248    -607.009     138.472
  N       17.347    -605.973     136.742
  C       17.479    -604.808     136.066
  C       16.894    -603.595     136.349
  C       16.027    -603.512     137.508
  O       15.461    -602.500     137.909
  N       17.272    -602.636     135.442
  C       18.063    -603.275     134.604
  N       18.229    -604.598     134.949
  O       18.177    -601.996     130.714
  O       20.495    -601.254     130.123
  H       18.721    -608.077     134.755
  H       20.236    -600.710     130.897
  H       15.293    -604.730     138.955
  H       18.560    -602.826     133.747
  H       19.786    -605.915     135.082
  H       17.581    -606.199     132.963
  H       15.536    -607.050     139.185
  H       18.999    -607.369     131.573
  H       16.537    -607.891     138.050
  H       21.257    -605.766     132.017
  H       19.749    -605.513     130.059
  H       18.496    -604.801     131.075
  P       20.766    -609.345     132.002
  C       18.804    -610.827     132.747
  O       19.405    -610.128     131.671
  O       21.482    -610.308     133.066
  O       21.654    -609.129     130.821
  H       22.394    -610.491     132.776
  H       18.061    -611.517     132.343
  H       18.307    -610.119     133.410
  H       19.552    -611.392     133.306
  H       20.035    -603.315     126.651
  H       20.772    -604.121     128.015
  H       21.166    -602.455     127.668

 3  4  5  6  7  8  9  10  11  12  23  26  30  31 0
 6-311+G(2d,p)
 ****
 33  35  36  37  38 0
 6-311+G(2d,p)
 ****
 1  2  13  14  15  16  17  18  19  20  21  22  24  25 0
 3-21G
 ****
 27  28  29  32  34  39  40  41  42  43  44  45  46  47  48  49 0
 3-21G
 ****


