%nproc=1
%NoSave
%Mem=1900MB
#P OB98/GEN NMR

erre ene a

0 1
  C     -288.032    -331.563      99.966
  O     -288.091    -332.881      99.414
  P     -288.319    -333.022      97.841
  C     -289.767    -335.166      98.064
  O     -288.590    -334.579      97.503
  C     -289.575    -336.668      98.305
  O     -288.946    -337.258      97.122
  C     -288.638    -337.014      99.474
  O     -289.215    -337.156     100.771
  C     -288.144    -338.402      99.065
  O     -289.122    -339.405      99.454
  C     -288.071    -338.323      97.542
  N     -283.348    -340.285      97.106
  C     -284.496    -340.777      97.648
  N     -285.710    -340.194      97.720
  C     -285.683    -338.970      97.155
  C     -284.605    -338.335      96.560
  C     -283.384    -339.040      96.552
  N     -282.220    -338.535      96.006
  N     -284.958    -337.095      96.089
  C     -286.236    -336.965      96.420
  N     -286.721    -338.087      97.051
  O     -287.332    -332.350      96.955
  O     -289.791    -332.389      97.641
  H     -289.848    -339.334      98.802
  H     -289.804    -331.902      96.797
  H     -284.422    -341.773      98.078
  H     -286.832    -336.094      96.215
  H     -288.428    -339.246      97.058
  H     -287.200    -338.676      99.556
  H     -287.789    -336.326      99.520
  H     -290.540    -337.144      98.447
  H     -290.611    -335.010      97.371
  H     -281.390    -339.092      96.084
  H     -282.220    -337.600      95.636
  H     -290.006    -334.622      98.977
  P     -288.588    -336.403     102.045
  C     -289.914    -338.282     103.322
  O     -289.413    -336.968     103.315
  O     -288.538    -334.920     101.945
  O     -287.161    -337.120     102.207
  H     -287.211    -338.052     102.485
  H     -290.240    -338.528     104.333
  H     -289.137    -338.987     103.013
  H     -290.772    -338.349     102.651
  H     -287.876    -331.626     101.023
  H     -288.952    -331.053      99.771
  H     -287.224    -331.024      99.518

 3  4  5  6  7  8  9  10  11  12  22  25  29  30  31  32 0
 6-311+G(2d,p)
 ****
 33  36  37 0
 6-311+G(2d,p)
 ****
 1  2  13  14  15  16  17  18  19  20  21  23  24  26 0
 3-21G
 ****
 27  28  34  35  38  39  40  41  42  43  44  45  46  47  48 0
 3-21G
 ****


