%nproc=1
%NoSave
%Mem=1900MB
#P OB98/GEN NMR

erre ene a

0 1
  C     -330.955    -127.262    -698.125
  O     -331.484    -126.180    -698.863
  H     -331.788    -127.876    -697.769
  H     -330.408    -126.882    -697.262
  H     -330.304    -127.889    -698.736
  P     -330.484    -125.289    -699.748
  C     -331.380    -125.748    -702.124
  O     -330.359    -126.015    -701.172
  C     -332.134    -127.032    -702.490
  O     -332.758    -127.578    -701.293
  C     -333.242    -126.818    -703.556
  O     -333.331    -128.030    -704.311
  C     -334.466    -126.649    -702.674
  O     -335.656    -126.844    -703.403
  C     -334.179    -127.674    -701.575
  N     -334.981    -127.451    -700.369
  C     -336.121    -128.234    -700.226
  O     -336.479    -129.062    -701.066
  N     -336.880    -128.014    -699.111
  C     -336.637    -127.038    -698.174
  O     -337.370    -126.856    -697.197
  C     -335.438    -126.216    -698.398
  C     -334.684    -126.443    -699.457
  O     -329.178    -124.949    -699.103
  O     -331.328    -123.972    -700.111
  H     -335.652    -127.725    -703.835
  H     -330.738    -123.210    -700.199
  H     -337.705    -128.572    -698.979
  H     -335.224    -125.431    -697.675
  H     -333.795    -125.856    -699.655
  H     -334.373    -128.690    -701.925
  H     -334.498    -125.637    -702.249
  H     -333.060    -125.972    -704.208
  H     -331.396    -127.778    -702.834
  H     -330.914    -125.326    -703.015
  H     -332.086    -125.018    -701.697
  P     -332.343    -128.359    -705.523
  C     -331.006    -130.403    -704.714
  O     -330.986    -128.991    -704.953
  O     -332.119    -127.220    -706.467
  O     -333.036    -129.586    -706.296
  H     -332.787    -129.568    -707.243
  H     -330.054    -130.714    -704.337
  H     -331.213    -130.917    -705.630
  H     -331.766    -130.633    -703.997

 6  7  8  9  10  11  12  13  14  15  16  26  31  32  33  34  35 0
 6-311+G(2d,p)
 ****
 36  37 0
 6-311+G(2d,p)
 ****
 1  2  3  4  5  17  18  19  20  21  22  23  24  25 0
 3-21G
 ****
 27  28  29  30  38  39  40  41  42  43  44  45 0
 3-21G
 ****


