%nproc=1
%NoSave
%Mem=1900MB
#P OB98/GEN NMR

erre ene a

0 1
  C      245.457      46.009    -123.282
  O      245.047      45.369    -124.473
  H      246.168      45.379    -122.740
  H      245.948      46.952    -123.538
  H      244.590      46.222    -122.649
  P      244.332      43.941    -124.318
  C      242.151      43.172    -123.126
  O      243.141      44.180    -123.267
  C      241.589      43.213    -121.709
  O      242.659      43.076    -120.746
  C      240.886      44.521    -121.364
  O      239.550      44.564    -121.836
  C      240.933      44.476    -119.846
  O      239.934      43.567    -119.354
  C      242.341      43.910    -119.598
  N      244.814      46.944    -116.298
  C      243.882      45.982    -116.116
  N      243.289      45.205    -117.044
  C      243.755      45.490    -118.270
  C      244.707      46.437    -118.610
  C      245.246      47.193    -117.556
  N      246.172      48.195    -117.741
  N      244.909      46.453    -119.977
  C      244.106      45.521    -120.447
  N      243.363      44.933    -119.458
  O      245.385      43.077    -123.477
  O      243.912      43.279    -125.587
  H      239.071      43.896    -119.667
  H      245.154      42.129    -123.515
  H      243.570      45.819    -115.089
  H      244.017      45.242    -121.489
  H      242.389      43.278    -118.704
  H      240.737      45.450    -119.388
  H      241.458      45.389    -121.714
  H      240.914      42.358    -121.581
  H      242.606      42.195    -123.312
  H      246.385      48.777    -116.946
  H      246.389      48.487    -118.682
  H      241.352      43.342    -123.853
  P      238.851      46.005    -121.954
  C      239.389      48.114    -123.370
  O      239.892      46.952    -122.724
  O      238.898      46.549    -120.451
  O      237.463      45.980    -122.505
  H      238.127      47.117    -120.262
  H      240.196      48.640    -123.836
  H      238.919      48.749    -122.648
  H      238.673      47.828    -124.112

 6  7  8  9  10  11  12  13  14  15  25  28  32  33  34  35 0
 6-311+G(2d,p)
 ****
 36  39  40 0
 6-311+G(2d,p)
 ****
 1  2  3  4  5  16  17  18  19  20  21  22  23  24 0
 3-21G
 ****
 26  27  29  30  31  37  38  41  42  43  44  45  46  47 0
 3-21G
 ****
 48 0
 3-21G
 ****


