%nproc=1
%NoSave
%Mem=1900MB
#P OB98/GEN NMR

erre ene a

0 1
  C     -189.656     516.596     241.854
  O     -189.547     515.355     242.523
  H     -190.031     517.340     242.557
  H     -190.359     516.513     241.021
  H     -188.681     516.926     241.485
  P     -188.845     514.130     241.766
  C     -186.500     514.138     242.848
  O     -187.772     513.509     242.787
  C     -185.458     513.328     242.068
  O     -184.197     514.077     242.057
  C     -185.154     511.942     242.671
  O     -184.785     511.083     241.575
  C     -183.956     512.259     243.544
  O     -183.300     511.109     244.011
  C     -183.188     513.190     242.592
  N     -182.105     513.951     243.197
  C     -181.057     514.358     242.378
  O     -180.989     514.125     241.167
  N     -180.057     515.066     242.990
  C     -180.006     515.408     244.309
  O     -179.102     516.071     244.802
  C     -181.138     514.941     245.133
  C     -182.115     514.253     244.548
  O     -188.324     514.419     240.397
  O     -189.985     513.001     241.732
  H     -190.391     512.976     240.846
  H     -182.582     511.375     244.621
  H     -179.295     515.373     242.406
  H     -181.124     515.189     246.185
  H     -182.971     513.907     245.130
  H     -182.790     512.611     241.748
  H     -184.285     512.805     244.438
  H     -186.004     511.506     243.200
  H     -185.783     513.247     241.023
  H     -186.199     514.205     243.902
  H     -186.579     515.150     242.436
  P     -185.803     510.060     240.870
  C     -187.409     511.463     239.405
  O     -186.225     510.674     239.450
  O     -186.965     509.676     241.725
  O     -184.918     508.781     240.489
  H     -185.486     507.991     240.456
  H     -187.571     511.807     238.405
  H     -187.302     512.304     240.058
  H     -188.244     510.872     239.719

 6  7  8  9  10  11  12  13  14  15  16  27  31  32  33  34  35 0
 6-311+G(2d,p)
 ****
 36  37 0
 6-311+G(2d,p)
 ****
 1  2  3  4  5  17  18  19  20  21  22  23  24  25 0
 3-21G
 ****
 26  28  29  30  38  39  40  41  42  43  44  45 0
 3-21G
 ****


