%nproc=1
%NoSave
%Mem=1900MB
#P OB98/GEN NMR

erre ene a

0 1
  C      290.130     103.135    -169.851
  O      291.457     102.952    -170.356
  P      292.510     102.186    -169.418
  C      293.718     104.289    -168.495
  O      292.918     103.151    -168.205
  C      293.780     105.250    -167.297
  O      294.631     106.393    -167.598
  C      292.414     105.810    -166.891
  O      292.434     106.064    -165.480
  C      292.371     107.139    -167.623
  O      291.397     108.021    -167.062
  C      293.825     107.583    -167.471
  N      293.045     112.304    -169.067
  C      292.448     111.605    -168.038
  N      291.531     112.272    -167.304
  N      292.725     110.356    -167.751
  C      293.688     109.831    -168.550
  C      294.345     110.420    -169.602
  C      294.009     111.788    -169.924
  O      294.496     112.457    -170.833
  N      295.237     109.552    -170.187
  C      295.110     108.440    -169.487
  N      294.209     108.570    -168.464
  O      293.832     102.144    -170.324
  O      292.080     100.810    -169.029
  H      291.334     108.800    -167.657
  H      293.986     101.236    -170.642
  H      292.784     113.260    -169.249
  H      295.640     107.520    -169.678
  H      294.026     108.027    -166.487
  H      292.120     106.975    -168.678
  H      291.310     113.245    -167.436
  H      291.563     105.166    -167.132
  H      291.110     111.793    -166.517
  H      294.231     104.723    -166.450
  H      293.317     104.818    -169.364
  H      294.717     103.953    -168.789
  P      291.293     105.359    -164.602
  C      289.529     107.241    -164.915
  O      289.895     105.898    -165.169
  O      291.421     106.080    -163.176
  O      291.417     103.878    -164.495
  H      291.077     105.499    -162.473
  H      289.687     107.833    -165.822
  H      290.109     107.677    -164.094
  H      288.469     107.272    -164.650
  H      289.541     103.656    -170.576
  H      290.168     103.705    -168.946
  H      289.689     102.180    -169.653

 3  4  5  6  7  8  9  10  11  12  23  26  30  31 0
 6-311+G(2d,p)
 ****
 33  35  36  37  38 0
 6-311+G(2d,p)
 ****
 1  2  13  14  15  16  17  18  19  20  21  22  24  25 0
 3-21G
 ****
 27  28  29  32  34  39  40  41  42  43  44  45  46  47  48  49 0
 3-21G
 ****


