%nproc=1
%NoSave
%Mem=1900MB
#P OB98/GEN NMR

erre ene a

0 1
  C      -17.467    -421.877    -121.459
  O      -17.854    -423.203    -121.155
  H      -18.207    -421.447    -122.141
  H      -16.491    -421.866    -121.956
  H      -17.435    -421.267    -120.553
  P      -16.924    -424.062    -120.170
  C      -14.508    -424.985    -120.360
  O      -15.560    -424.266    -120.995
  C      -13.781    -425.865    -121.375
  O      -13.116    -425.072    -122.381
  C      -12.680    -426.743    -120.787
  O      -13.166    -427.844    -120.043
  C      -11.980    -427.169    -122.070
  O      -12.765    -428.179    -122.734
  C      -11.982    -425.847    -122.864
  N      -10.741    -425.087    -122.696
  C       -9.576    -425.675    -123.205
  O       -9.614    -426.776    -123.751
  N       -8.373    -425.016    -123.054
  C       -8.341    -423.879    -122.425
  N       -7.129    -423.272    -122.294
  C       -9.543    -423.231    -121.857
  C      -10.694    -423.884    -122.030
  O      -17.535    -425.312    -119.612
  O      -16.464    -423.021    -119.043
  H      -12.737    -428.974    -122.172
  H      -15.890    -423.506    -118.399
  H       -9.456    -422.297    -121.320
  H      -11.616    -423.473    -121.636
  H      -12.146    -426.029    -123.933
  H      -10.992    -427.589    -121.897
  H      -11.979    -426.142    -120.193
  H      -14.548    -426.465    -121.892
  H       -6.325    -423.740    -122.693
  H      -14.942    -425.583    -119.555
  H       -6.997    -422.423    -121.759
  H      -13.787    -424.280    -119.932
  P      -12.098    -428.627    -119.126
  C       -9.817    -429.812    -119.603
  O      -10.981    -429.204    -120.131
  O      -12.904    -429.928    -118.661
  O      -11.548    -427.840    -117.976
  H      -13.264    -429.803    -117.759
  H       -9.188    -430.136    -120.406
  H      -10.095    -430.655    -119.005
  H       -9.288    -429.105    -118.999

 6  7  8  9  10  11  12  13  14  15  16  26  30  31  32  33  35 0
 6-311+G(2d,p)
 ****
 37  38 0
 6-311+G(2d,p)
 ****
 1  2  3  4  5  17  18  19  20  21  22  23  24  25 0
 3-21G
 ****
 27  28  29  34  36  39  40  41  42  43  44  45  46 0
 3-21G
 ****


