%nproc=1
%NoSave
%Mem=1900MB
#P OB98/GEN NMR

erre ene a

0 1
  C     -948.656     258.874     510.466
  O     -948.654     257.522     510.067
  H     -949.269     258.985     511.365
  H     -949.098     259.485     509.667
  H     -947.646     259.227     510.684
  P     -947.525     257.059     509.029
  C     -947.063     254.737     510.099
  O     -947.575     255.453     508.981
  C     -946.910     253.250     509.746
  O     -948.230     252.614     509.841
  C     -946.366     252.983     508.329
  O     -945.518     251.838     508.379
  C     -947.616     252.619     507.560
  O     -947.327     251.836     506.402
  C     -948.410     251.867     508.624
  N     -951.601     249.250     505.768
  C     -950.285     249.010     506.082
  N     -949.691     247.949     505.501
  N     -949.594     249.766     506.903
  C     -950.306     250.790     507.430
  C     -951.612     251.130     507.189
  C     -952.372     250.300     506.278
  O     -953.530     250.461     505.937
  N     -951.949     252.275     507.878
  C     -950.841     252.635     508.501
  N     -949.815     251.765     508.267
  O     -946.167     257.369     509.830
  O     -947.557     257.741     507.701
  H     -948.169     251.561     505.996
  H     -945.830     258.249     509.572
  H     -952.096     248.653     505.123
  H     -950.729     253.510     509.123
  H     -948.041     250.857     508.794
  H     -948.151     253.524     507.233
  H     -950.165     247.303     504.889
  H     -945.826     253.821     507.902
  H     -948.737     247.740     505.755
  H     -946.273     252.777     510.507
  H     -947.759     254.840     510.933
  H     -946.101     255.167     510.384
  P     -944.074     251.929     507.677
  C     -942.697     251.215     509.767
  O     -943.069     250.932     508.426
  O     -943.547     253.377     508.128
  O     -944.114     251.805     506.193
  H     -943.016     253.781     507.409
  H     -942.026     250.459     510.118
  H     -943.571     251.231     510.384
  H     -942.213     252.168     509.809

 6  7  8  9  10  11  12  13  14  15  26  29  33  34 0
 6-311+G(2d,p)
 ****
 36  38  39  40  41 0
 6-311+G(2d,p)
 ****
 1  2  3  4  5  16  17  18  19  20  21  22  23  24  25 0
 3-21G
 ****
 27  28  30  31  32  35  37  42  43  44  45  46  47 0
 3-21G
 ****
 48  49 0
 3-21G
 ****


