%nproc=1
%NoSave
%Mem=1900MB
#P OB98/GEN NMR

erre ene a

0 1
  C       88.212     -28.873     216.313
  O       88.274     -30.230     216.705
  P       87.124     -31.263     216.292
  C       86.545     -32.522     214.137
  O       87.056     -31.319     214.691
  C       85.915     -32.281     212.765
  O       84.756     -31.419     212.912
  C       86.859     -31.629     211.747
  O       86.584     -32.221     210.472
  C       86.428     -30.175     211.761
  O       86.799     -29.487     210.575
  C       84.920     -30.326     211.985
  N       84.307     -29.107     212.488
  C       83.601     -28.328     211.566
  O       83.627     -28.612     210.369
  N       82.899     -27.242     212.029
  C       83.048     -26.864     213.262
  N       82.283     -25.826     213.697
  C       83.985     -27.520     214.197
  C       84.542     -28.649     213.764
  O       85.806     -31.044     216.960
  O       87.726     -32.699     216.676
  H       87.087     -33.170     217.246
  H       87.753     -29.637     210.408
  H       84.168     -27.094     215.172
  H       85.222     -29.219     214.386
  H       84.419     -30.615     211.053
  H       86.893     -29.662     212.613
  H       87.914     -31.776     211.992
  H       85.555     -33.244     212.381
  H       81.623     -25.428     213.040
  H       85.782     -32.914     214.814
  H       82.094     -25.671     214.686
  H       87.343     -33.271     214.068
  P       87.770     -32.287     209.389
  C       90.068     -33.484     209.247
  O       89.017     -33.023     210.073
  O       88.261     -30.756     209.356
  O       87.393     -32.726     208.012
  H       88.678     -30.575     208.495
  H       90.793     -34.014     209.868
  H       90.572     -32.641     208.766
  H       89.689     -34.170     208.486
  H       89.070     -28.354     216.687
  H       87.324     -28.427     216.710
  H       88.195     -28.811     215.245

 3  4  5  6  7  8  9  10  11  12  13  24  27  28  29  30  32 0
 6-311+G(2d,p)
 ****
 34  35 0
 6-311+G(2d,p)
 ****
 1  2  14  15  16  17  18  19  20  21  22  23  25  26 0
 3-21G
 ****
 31  33  36  37  38  39  40  41  42  43  44  45  46 0
 3-21G
 ****


