%nproc=1
%NoSave
%Mem=1900MB
#P OB98/GEN NMR

erre ene a

0 1
  C      478.343     240.145    -161.123
  O      477.788     241.284    -160.496
  H      479.214     239.816    -160.548
  H      478.665     240.398    -162.140
  H      477.611     239.331    -161.155
  P      476.398     241.828    -161.082
  C      476.645     244.146    -162.292
  O      476.743     242.730    -162.369
  C      477.901     244.720    -161.638
  O      479.095     244.247    -162.293
  C      478.009     246.235    -161.740
  O      477.089     246.906    -160.912
  C      479.464     246.433    -161.333
  O      479.618     246.361    -159.909
  C      480.141     245.221    -162.019
  N      480.860     245.592    -163.232
  C      481.989     246.403    -163.042
  O      482.329     246.745    -161.909
  N      482.686     246.826    -164.149
  C      482.311     246.451    -165.332
  N      483.039     246.911    -166.387
  C      481.143     245.576    -165.572
  C      480.467     245.197    -164.490
  O      475.961     242.915    -159.993
  O      475.368     240.781    -161.356
  H      479.218     247.177    -159.547
  H      476.646     243.582    -159.811
  H      480.868     245.287    -166.576
  H      479.599     244.557    -164.577
  H      480.852     244.736    -161.338
  H      479.851     247.407    -161.643
  H      477.909     246.554    -162.786
  H      477.926     244.383    -160.592
  H      483.820     247.524    -166.183
  H      475.749     244.448    -161.740
  H      482.821     246.714    -167.353
  H      476.545     244.526    -163.315
  P      476.833     248.480    -161.084
  C      478.154     249.938    -159.422
  O      478.199     249.210    -160.649
  O      475.607     249.004    -160.409
  O      476.836     248.681    -162.674
  H      477.667     248.421    -163.117
  H      479.111     250.379    -159.234
  H      477.904     249.273    -158.622
  H      477.414     250.708    -159.491

 6  7  8  9  10  11  12  13  14  15  16  26  30  31  32  33  35 0
 6-311+G(2d,p)
 ****
 37  38 0
 6-311+G(2d,p)
 ****
 1  2  3  4  5  17  18  19  20  21  22  23  24  25 0
 3-21G
 ****
 27  28  29  34  36  39  40  41  42  43  44  45  46 0
 3-21G
 ****


