%nproc=1
%NoSave
%Mem=1900MB
#P OB98/GEN NMR

erre ene a

0 1
  C     -135.537      98.915     180.302
  O     -134.367      98.847     179.502
  P     -133.996      97.453     178.808
  C     -131.631      97.147     179.842
  O     -132.399      97.387     178.675
  C     -130.169      97.537     179.609
  O     -129.653      96.807     178.453
  C     -129.957      99.033     179.339
  O     -128.685      99.399     179.902
  C     -129.876      99.084     177.825
  O     -129.252     100.262     177.337
  C     -129.101      97.789     177.552
  N     -129.192      97.355     176.160
  C     -128.301      97.922     175.253
  O     -127.451      98.760     175.552
  N     -128.456      97.537     173.946
  C     -129.444      96.737     173.457
  O     -129.597      96.524     172.256
  C     -130.357      96.166     174.458
  C     -130.193      96.495     175.743
  O     -134.495      97.650     177.302
  O     -134.612      96.255     179.449
  H     -128.376     100.326     177.759
  H     -135.359      97.213     177.169
  H     -127.810      97.928     173.279
  H     -131.142      95.509     174.104
  H     -130.864      96.107     176.499
  H     -128.046      97.917     177.825
  H     -130.887      99.041     177.405
  H     -130.749      99.670     179.744
  H     -129.577      97.220     180.480
  H     -131.683      96.086     180.095
  H     -132.050      97.711     180.684
  P     -128.617     100.738     180.791
  C     -127.140     102.139     179.144
  O     -127.254     101.483     180.391
  O     -128.307     100.117     182.236
  O     -129.864     101.555     180.744
  H     -127.638      99.410     182.206
  H     -128.090     102.582     178.834
  H     -126.813     101.422     178.387
  H     -126.393     102.931     179.230
  H     -135.645      99.906     180.692
  H     -135.456      98.220     181.111
  H     -136.391      98.671     179.706

 3  4  5  6  7  8  9  10  11  12  13  23  28  29  30  31  32 0
 6-311+G(2d,p)
 ****
 33  34 0
 6-311+G(2d,p)
 ****
 1  2  14  15  16  17  18  19  20  21  22  24  25  26 0
 3-21G
 ****
 27  35  36  37  38  39  40  41  42  43  44  45 0
 3-21G
 ****


