%nproc=1
%NoSave
%Mem=1900MB
#P OB98/GEN NMR

erre ene a

0 1
  C       -1.460     173.989     -64.919
  O       -0.869     172.846     -65.501
  H       -1.105     174.875     -65.452
  H       -1.166     174.074     -63.870
  H       -2.550     173.947     -64.999
  P       -1.339     171.396     -65.005
  C        0.484     171.189     -63.191
  O       -0.909     171.267     -63.467
  C        0.712     171.148     -61.682
  O        0.084     172.286     -61.052
  C        0.119     169.920     -61.003
  O        0.919     168.775     -61.226
  C        0.067     170.389     -59.558
  O        1.351     170.257     -58.928
  C       -0.318     171.875     -59.724
  N       -1.743     172.121     -59.503
  C       -2.079     172.816     -58.346
  O       -1.251     173.188     -57.516
  N       -3.416     173.048     -58.158
  C       -4.429     172.563     -58.933
  O       -5.617     172.723     -58.670
  C       -4.017     171.816     -60.128
  C       -2.713     171.633     -60.356
  O       -0.934     170.252     -65.873
  O       -2.934     171.528     -64.920
  H        1.465     169.307     -58.733
  H       -3.338     171.063     -65.677
  H       -3.681     173.537     -57.318
  H       -4.790     171.427     -60.776
  H       -2.390     171.079     -61.229
  H        0.249     172.496     -59.019
  H       -0.642     169.815     -58.963
  H       -0.904     169.752     -61.357
  H        1.793     171.213     -61.494
  H        0.977     172.072     -63.610
  H        0.892     170.292     -63.671
  P        0.244     167.324     -61.254
  C        1.084     166.663     -58.917
  O       -0.056     166.894     -59.739
  O        0.961     166.302     -62.072
  O       -1.219     167.596     -61.845
  H       -1.330     167.095     -62.675
  H        0.765     166.384     -57.935
  H        1.670     167.556     -58.861
  H        1.673     165.875     -59.338

 6  7  8  9  10  11  12  13  14  15  16  26  31  32  33  34  35 0
 6-311+G(2d,p)
 ****
 36  37 0
 6-311+G(2d,p)
 ****
 1  2  3  4  5  17  18  19  20  21  22  23  24  25 0
 3-21G
 ****
 27  28  29  30  38  39  40  41  42  43  44  45 0
 3-21G
 ****


