%nproc=1
%NoSave
%Mem=1900MB
#P OB98/GEN NMR

erre ene a

0 1
  C       -0.294      27.358       3.351
  O       -1.583      26.784       3.405
  H        0.030      27.591       4.368
  H       -0.315      28.283       2.769
  H        0.413      26.654       2.907
  P       -2.273      26.419       2.004
  C       -1.684      24.762       0.093
  O       -1.213      25.535       1.187
  C       -0.698      24.860      -1.066
  O       -0.585      26.234      -1.500
  C        0.719      24.429      -0.714
  O        0.861      23.020      -0.690
  C        1.506      25.082      -1.838
  O        1.503      24.271      -3.023
  C        0.731      26.398      -2.065
  N        1.429      27.550      -1.504
  C        2.354      28.163      -2.344
  O        2.585      27.775      -3.488
  N        3.037      29.221      -1.810
  C        2.916      29.689      -0.534
  O        3.611      30.595      -0.094
  C        1.913      29.011       0.303
  C        1.232      27.983      -0.208
  O       -2.280      27.820       1.229
  O       -3.637      25.825       2.107
  H       -3.174      28.209       1.255
  H        0.564      24.104      -3.237
  H        3.719      29.671      -2.399
  H        1.787      29.363       1.320
  H        0.502      27.454       0.397
  H        0.592      26.578      -3.139
  H        2.549      25.233      -1.561
  H        1.026      24.875       0.239
  H       -1.086      24.266      -1.904
  H       -2.657      25.144      -0.233
  H       -1.804      23.723       0.416
  P        2.048      22.385       0.181
  C        2.341      22.119       2.777
  O        1.804      22.855       1.694
  O        3.292      23.263      -0.305
  O        2.205      20.914      -0.001
  H        3.056      24.188      -0.489
  H        2.069      22.591       3.698
  H        3.407      22.088       2.693
  H        1.952      21.122       2.758

 6  7  8  9  10  11  12  13  14  15  16  27  31  32  33  34  35 0
 6-311+G(2d,p)
 ****
 36  37 0
 6-311+G(2d,p)
 ****
 1  2  3  4  5  17  18  19  20  21  22  23  24  25 0
 3-21G
 ****
 26  28  29  30  38  39  40  41  42  43  44  45 0
 3-21G
 ****


