%nproc=1
%NoSave
%Mem=1900MB
#P OB98/GEN NMR

erre ene a

0 1
  C      602.772    -149.317     131.001
  O      602.306    -148.328     130.097
  H      602.854    -150.267     130.468
  H      602.071    -149.430     131.832
  H      603.762    -149.036     131.378
  P      602.085    -146.856     130.695
  C      603.168    -145.530     128.767
  O      601.952    -145.916     129.394
  C      602.898    -144.491     127.667
  O      602.233    -145.155     126.562
  C      602.000    -143.338     128.139
  O      602.463    -142.119     127.544
  C      600.636    -143.697     127.575
  O      599.808    -142.551     127.381
  C      601.013    -144.430     126.285
  N      599.249    -147.167     122.354
  C      600.376    -146.438     122.511
  N      600.773    -145.756     123.606
  C      599.898    -145.909     124.609
  C      598.701    -146.609     124.595
  C      598.378    -147.251     123.387
  N      597.218    -147.970     123.202
  N      598.052    -146.496     125.814
  C      598.847    -145.742     126.561
  N      599.969    -145.355     125.871
  O      603.078    -146.408     131.707
  O      600.569    -146.946     131.208
  H      599.664    -142.135     128.255
  H      599.993    -147.387     130.563
  H      601.044    -146.404     121.654
  H      598.653    -145.442     127.588
  H      601.196    -143.743     125.453
  H      600.117    -144.377     128.267
  H      601.981    -143.236     129.228
  H      603.859    -144.120     127.289
  H      603.653    -146.407     128.323
  H      597.070    -148.422     122.306
  H      596.571    -148.073     123.972
  H      603.829    -145.109     129.530
  P      602.248    -140.747     128.348
  C      604.461    -140.610     129.676
  O      603.682    -140.077     128.603
  O      601.346    -140.826     129.545
  O      601.619    -139.780     127.228
  H      600.941    -139.212     127.645
  H      605.389    -140.080     129.741
  H      604.654    -141.647     129.496
  H      603.924    -140.502     130.595

 6  7  8  9  10  11  12  13  14  15  25  28  32  33  34  35 0
 6-311+G(2d,p)
 ****
 36  39  40 0
 6-311+G(2d,p)
 ****
 1  2  3  4  5  16  17  18  19  20  21  22  23  24 0
 3-21G
 ****
 26  27  29  30  31  37  38  41  42  43  44  45  46  47 0
 3-21G
 ****
 48 0
 3-21G
 ****


