%nproc=1
%NoSave
%Mem=1900MB
#P OB98/GEN NMR

erre ene a

0 1
  C     1658.046    -336.820     323.600
  O     1656.984    -336.043     324.115
  H     1658.733    -336.159     323.044
  H     1657.672    -337.575     322.914
  H     1658.605    -337.291     324.417
  P     1655.850    -336.830     324.938
  C     1655.147    -337.993     322.729
  O     1654.751    -337.190     323.833
  C     1653.939    -338.606     322.032
  O     1653.270    -339.525     322.927
  C     1652.897    -337.597     321.590
  O     1653.257    -337.021     320.331
  C     1651.670    -338.492     321.451
  O     1651.710    -339.194     320.196
  C     1651.859    -339.473     322.617
  N     1648.738    -341.241     326.317
  C     1649.142    -341.789     325.141
  N     1649.909    -341.245     324.186
  C     1650.311    -340.001     324.543
  C     1649.961    -339.293     325.686
  C     1649.151    -339.986     326.610
  N     1648.739    -339.424     327.793
  N     1650.548    -338.048     325.691
  C     1651.267    -338.014     324.594
  N     1651.110    -339.150     323.846
  O     1655.357    -336.144     326.170
  O     1656.583    -338.238     325.184
  H     1650.947    -339.828     320.220
  H     1657.072    -338.514     324.377
  H     1648.789    -342.793     324.955
  H     1651.916    -337.192     324.311
  H     1651.550    -340.488     322.329
  H     1650.734    -337.915     321.470
  H     1652.712    -336.826     322.336
  H     1654.310    -339.202     321.181
  H     1655.843    -338.779     323.071
  H     1647.991    -339.894     328.305
  H     1648.916    -338.438     327.966
  H     1655.710    -337.341     322.033
  P     1653.760    -335.494     320.195
  C     1651.518    -334.330     320.721
  O     1652.475    -334.690     319.716
  O     1655.015    -335.330     319.412
  O     1653.932    -335.036     321.730
  H     1654.485    -334.215     321.761
  H     1650.708    -333.797     320.268
  H     1651.988    -333.709     321.455
  H     1651.144    -335.216     321.190

 6  7  8  9  10  11  12  13  14  15  25  28  32  33  34  35 0
 6-311+G(2d,p)
 ****
 36  39  40 0
 6-311+G(2d,p)
 ****
 1  2  3  4  5  16  17  18  19  20  21  22  23  24 0
 3-21G
 ****
 26  27  29  30  31  37  38  41  42  43  44  45  46  47 0
 3-21G
 ****
 48 0
 3-21G
 ****


