%nproc=1
%NoSave
%Mem=1900MB
#P OB98/GEN NMR

erre ene a

0 1
  C      986.905    -443.280    1480.223
  O      987.854    -442.892    1481.208
  H      986.782    -442.477    1479.515
  H      985.941    -443.486    1480.706
  H      987.244    -444.182    1479.706
  P      988.432    -443.972    1482.228
  C      990.743    -443.717    1481.108
  O      989.719    -444.624    1481.513
  C      991.870    -444.481    1480.392
  O      992.607    -445.281    1481.396
  C      991.408    -445.460    1479.297
  O      992.425    -445.501    1478.304
  C      991.358    -446.771    1480.073
  O      991.244    -447.867    1479.214
  C      992.617    -446.645    1480.907
  N      992.696    -447.592    1482.002
  C      993.726    -448.566    1481.936
  O      994.503    -448.659    1481.004
  N      993.716    -449.468    1482.951
  C      992.880    -449.514    1484.022
  O      992.969    -450.344    1484.926
  C      991.832    -448.481    1484.056
  C      991.808    -447.575    1483.048
  O      987.440    -444.968    1482.751
  O      989.075    -443.097    1483.400
  H      988.425    -443.032    1484.145
  H      991.093    -448.697    1479.749
  H      994.439    -450.175    1482.909
  H      991.135    -448.479    1484.857
  H      991.029    -446.793    1483.023
  H      993.513    -446.721    1480.286
  H      990.453    -446.794    1480.727
  H      990.437    -445.152    1478.849
  H      992.596    -443.744    1479.995
  H      991.130    -443.217    1481.997
  H      990.309    -442.978    1480.431
  P      992.552    -444.381    1477.132
  C      995.034    -443.900    1477.669
  O      993.736    -443.345    1477.531
  O      991.267    -443.726    1476.792
  O      993.121    -445.159    1475.860
  H      992.735    -444.799    1475.040
  H      995.726    -443.127    1477.932
  H      995.332    -444.346    1476.743
  H      995.023    -444.646    1478.436

 6  7  8  9  10  11  12  13  14  15  16  27  31  32  33  34  35 0
 6-311+G(2d,p)
 ****
 36  37 0
 6-311+G(2d,p)
 ****
 1  2  3  4  5  17  18  19  20  21  22  23  24  25 0
 3-21G
 ****
 26  28  29  30  38  39  40  41  42  43  44  45 0
 3-21G
 ****


