%nproc=1
%NoSave
%Mem=1900MB
#P OB98/GEN NMR

erre ene a

0 1
  C        7.420     330.571     608.605
  O        6.282     329.742     608.422
  P        6.082     329.053     606.979
  C        4.866     329.713     604.740
  O        5.300     330.091     606.045
  C        3.637     330.526     604.313
  O        2.500     330.089     605.091
  C        3.734     332.022     604.544
  O        2.751     332.678     603.729
  C        3.336     332.149     606.002
  O        2.948     333.479     606.333
  C        2.229     331.072     606.126
  N        2.178     330.418     607.456
  C        1.856     331.199     608.564
  O        1.606     332.405     608.525
  N        1.859     330.558     609.780
  C        2.126     329.214     609.975
  O        2.190     328.708     611.087
  C        2.314     328.420     608.757
  C        2.348     329.047     607.582
  O        5.024     327.889     607.253
  O        7.359     328.532     606.394
  H        2.166     333.697     605.757
  H        5.458     327.029     607.261
  H        1.692     331.113     610.592
  H        2.451     327.351     608.854
  H        2.506     328.470     606.667
  H        1.228     331.508     605.942
  H        4.186     331.882     606.636
  H        4.730     332.458     604.354
  H        3.420     330.306     603.257
  H        4.635     328.634     604.732
  H        5.685     329.870     604.022
  P        3.191     334.006     602.942
  C        2.316     336.426     602.785
  O        2.270     335.204     603.511
  O        3.263     333.892     601.451
  O        4.637     334.344     603.567
  H        5.122     334.940     602.976
  H        1.350     336.923     602.904
  H        2.496     336.257     601.706
  H        3.106     337.062     603.191
  H        7.423     330.957     609.603
  H        7.386     331.383     607.908
  H        8.309     329.998     608.442

 3  4  5  6  7  8  9  10  11  12  13  23  28  29  30  31  32 0
 6-311+G(2d,p)
 ****
 33  34 0
 6-311+G(2d,p)
 ****
 1  2  14  15  16  17  18  19  20  21  22  24  25  26  27 0
 3-21G
 ****
 35  36  37  38  39  40  41  42  43  44  45 0
 3-21G
 ****


