%nproc=1
%NoSave
%Mem=1900MB
#P OB98/GEN NMR

erre ene a

0 1
  C     -462.443    -542.304     273.994
  O     -462.399    -541.208     273.106
  H     -461.444    -542.746     274.049
  H     -463.139    -543.057     273.615
  H     -462.744    -541.995     275.000
  P     -463.575    -540.121     273.167
  C     -464.400    -540.804     270.821
  O     -463.965    -539.739     271.660
  C     -464.415    -540.398     269.343
  O     -465.223    -539.216     269.161
  C     -463.016    -540.040     268.825
  O     -462.229    -541.139     268.402
  C     -463.347    -539.119     267.654
  O     -463.605    -539.883     266.463
  C     -464.624    -538.416     268.124
  N     -464.457    -533.417     267.061
  C     -464.695    -534.481     266.208
  N     -464.845    -534.178     264.900
  N     -464.754    -535.726     266.606
  C     -464.487    -535.882     267.928
  C     -464.229    -534.914     268.867
  C     -464.216    -533.534     268.425
  O     -464.012    -532.555     269.138
  N     -464.012    -535.461     270.107
  C     -464.065    -536.759     269.905
  N     -464.378    -537.064     268.601
  O     -462.830    -538.792     273.680
  O     -464.724    -540.471     274.061
  H     -463.813    -539.264     265.740
  H     -463.465    -538.214     274.139
  H     -464.454    -532.478     266.704
  H     -463.910    -537.515     270.671
  H     -465.365    -538.340     267.314
  H     -462.523    -538.441     267.427
  H     -464.691    -533.249     264.529
  H     -462.471    -539.456     269.575
  H     -464.749    -534.933     264.224
  H     -464.874    -541.198     268.753
  H     -465.407    -541.066     271.141
  H     -463.770    -541.684     270.967
  P     -460.635    -541.094     268.594
  C     -460.096    -541.175     266.049
  O     -459.997    -541.808     267.304
  O     -460.398    -542.156     269.770
  O     -460.076    -539.760     268.922
  H     -460.331    -541.694     270.628
  H     -459.623    -541.781     265.305
  H     -459.613    -540.221     266.092
  H     -461.127    -541.042     265.797

 6  7  8  9  10  11  12  13  14  15  26  29  33  34 0
 6-311+G(2d,p)
 ****
 36  38  39  40  41 0
 6-311+G(2d,p)
 ****
 1  2  3  4  5  16  17  18  19  20  21  22  23  24  25 0
 3-21G
 ****
 27  28  30  31  32  35  37  42  43  44  45  46  47 0
 3-21G
 ****
 48  49 0
 3-21G
 ****


