%nproc=1
%NoSave
%Mem=1900MB
#P OB98/GEN NMR

erre ene a

0 1
  C      139.046      22.458    -426.986
  O      138.385      21.447    -426.211
  P      136.791      21.537    -426.083
  C      135.049      22.944    -424.770
  O      136.423      22.682    -425.015
  C      134.847      23.638    -423.407
  O      135.069      22.699    -422.316
  C      135.794      24.816    -423.172
  O      135.135      25.773    -422.330
  C      136.932      24.182    -422.392
  O      137.708      25.160    -421.694
  C      136.139      23.220    -421.504
  N      139.633      21.992    -418.064
  C      139.036      23.210    -418.336
  N      139.398      24.246    -417.548
  N      138.154      23.394    -419.289
  C      137.868      22.255    -419.970
  C      138.394      20.998    -419.809
  C      139.383      20.816    -418.763
  O      139.955      19.764    -418.498
  N      137.865      20.108    -420.713
  C      137.023      20.837    -421.431
  N      136.959      22.136    -420.988
  O      136.412      20.175    -425.316
  O      136.079      21.625    -427.392
  H      137.071      25.727    -421.198
  H      135.976      19.559    -425.926
  H      140.307      21.911    -417.329
  H      136.441      20.475    -422.260
  H      135.700      23.720    -420.637
  H      137.594      23.635    -423.071
  H      140.021      24.160    -416.761
  H      136.138      25.315    -424.088
  H      138.942      25.137    -417.699
  H      133.810      23.975    -423.341
  H      134.477      22.017    -424.792
  H      134.652      23.556    -425.584
  P      135.466      27.315    -422.584
  C      137.571      28.783    -422.143
  O      136.852      27.597    -421.833
  O      134.390      28.087    -421.677
  O      135.408      27.744    -424.012
  H      134.228      28.977    -422.031
  H      137.431      29.510    -421.336
  H      137.239      29.227    -423.093
  H      138.627      28.545    -422.220
  H      140.100      22.275    -426.986
  H      138.851      23.419    -426.559
  H      138.680      22.433    -427.991

 3  4  5  6  7  8  9  10  11  12  23  26  30  31 0
 6-311+G(2d,p)
 ****
 33  35  36  37  38 0
 6-311+G(2d,p)
 ****
 1  2  13  14  15  16  17  18  19  20  21  22  24  25 0
 3-21G
 ****
 27  28  29  32  34  39  40  41  42  43  44  45  46  47  48  49 0
 3-21G
 ****


