%nproc=1
%NoSave
%Mem=1900MB
#P OB98/GEN NMR

erre ene a

0 1
  C       13.119     151.428      -5.903
  O       12.196     151.566      -4.842
  H       12.577     151.126      -6.803
  H       13.860     150.661      -5.663
  H       13.619     152.381      -6.092
  P       12.812     151.897      -3.396
  C       13.392     154.363      -4.016
  O       13.873     153.066      -3.698
  C       14.006     155.392      -3.074
  O       13.621     155.124      -1.706
  C       15.531     155.414      -3.065
  O       16.091     156.079      -4.184
  C       15.774     156.177      -1.775
  O       15.495     157.574      -1.981
  C       14.724     155.528      -0.849
  N       15.248     154.377      -0.108
  C       16.479     154.552       0.534
  O       17.076     155.624       0.467
  N       17.025     153.490       1.214
  C       16.392     152.360       1.268
  N       16.984     151.345       1.953
  C       15.089     152.136       0.617
  C       14.581     153.173      -0.044
  O       13.753     150.638      -3.097
  O       11.828     152.205      -2.319
  H       15.667     158.020      -1.132
  H       14.298     150.809      -2.290
  H       14.604     151.172       0.679
  H       13.624     153.084      -0.548
  H       14.330     156.255      -0.130
  H       16.801     156.109      -1.419
  H       15.947     154.406      -2.962
  H       13.596     156.374      -3.341
  H       17.905     151.512       2.337
  H       12.302     154.360      -3.913
  H       16.646     150.393       1.925
  H       13.651     154.617      -5.049
  P       17.674     155.933      -4.411
  C       17.170     154.271      -6.350
  O       17.910     154.540      -5.166
  O       18.229     155.654      -2.938
  O       18.331     157.121      -5.042
  H       19.112     156.054      -2.816
  H       17.441     153.308      -6.729
  H       17.388     155.018      -7.084
  H       16.123     154.285      -6.127

 6  7  8  9  10  11  12  13  14  15  16  26  30  31  32  33  35 0
 6-311+G(2d,p)
 ****
 37  38 0
 6-311+G(2d,p)
 ****
 1  2  3  4  5  17  18  19  20  21  22  23  24  25 0
 3-21G
 ****
 27  28  29  34  36  39  40  41  42  43  44  45  46 0
 3-21G
 ****


