%nproc=1
%NoSave
%Mem=1900MB
#P OB98/GEN NMR

erre ene a

0 1
  C      282.302    -407.900    -638.892
  O      281.846    -409.108    -639.468
  H      281.853    -407.055    -639.430
  H      283.389    -407.826    -638.968
  H      282.007    -407.847    -637.839
  P      282.482    -410.461    -638.883
  C      280.066    -411.466    -638.911
  O      281.425    -411.593    -639.327
  C      279.278    -412.690    -639.371
  O      279.226    -412.753    -640.808
  C      279.861    -414.019    -638.922
  O      279.565    -414.321    -637.566
  C      279.170    -414.973    -639.885
  O      277.801    -415.167    -639.455
  C      279.231    -414.159    -641.196
  N      280.407    -414.471    -642.000
  C      280.497    -415.779    -642.503
  O      279.622    -416.612    -642.255
  N      281.597    -416.120    -643.248
  C      282.524    -415.237    -643.493
  N      283.608    -415.647    -644.227
  C      282.455    -413.853    -643.001
  C      281.387    -413.531    -642.275
  O      282.229    -410.348    -637.302
  O      283.903    -410.740    -639.261
  H      277.837    -415.502    -638.537
  H      282.470    -411.203    -636.863
  H      283.271    -413.159    -643.228
  H      281.273    -412.541    -641.881
  H      278.334    -414.328    -641.808
  H      279.633    -415.953    -639.928
  H      280.944    -414.066    -639.097
  H      278.231    -412.570    -639.022
  H      283.639    -416.622    -644.495
  H      279.652    -410.553    -639.359
  H      284.451    -415.091    -644.315
  H      280.012    -411.384    -637.825
  P      280.595    -415.280    -636.770
  C      280.378    -414.068    -634.479
  O      280.158    -415.257    -635.227
  O      281.964    -414.440    -636.777
  O      280.768    -416.641    -637.358
  H      282.732    -415.011    -636.915
  H      280.036    -414.210    -633.475
  H      279.840    -413.259    -634.928
  H      281.423    -413.840    -634.471

 6  7  8  9  10  11  12  13  14  15  16  26  30  31  32  33  35 0
 6-311+G(2d,p)
 ****
 37  38 0
 6-311+G(2d,p)
 ****
 1  2  3  4  5  17  18  19  20  21  22  23  24  25 0
 3-21G
 ****
 27  28  29  34  36  39  40  41  42  43  44  45  46 0
 3-21G
 ****


