%nproc=1
%NoSave
%Mem=1900MB
#P OB98/GEN NMR

erre ene a

0 1
  C       83.704     185.201    -109.546
  O       84.454     185.477    -110.711
  P       83.746     185.922    -112.080
  C       82.169     187.841    -112.747
  O       82.711     187.085    -111.676
  C       80.655     188.013    -112.599
  O       79.989     186.766    -112.944
  C       80.192     188.412    -111.189
  O       79.050     189.252    -111.364
  C       79.785     187.077    -110.591
  O       78.925     187.220    -109.468
  C       79.169     186.387    -111.817
  N       79.095     184.940    -111.649
  C       77.846     184.410    -111.324
  O       76.887     185.158    -111.111
  N       77.718     183.051    -111.187
  C       78.773     182.298    -111.267
  N       78.585     180.959    -111.129
  C       80.131     182.832    -111.485
  C       80.217     184.144    -111.682
  O       83.161     184.811    -112.882
  O       84.892     186.731    -112.850
  H       78.753     186.329    -109.095
  H       85.543     186.105    -113.256
  H       80.986     182.173    -111.488
  H       81.171     184.629    -111.850
  H       78.157     186.769    -112.005
  H       80.679     186.533    -110.260
  H       80.962     188.917    -110.602
  H       80.329     188.766    -113.324
  H       77.634     180.635    -110.996
  H       82.372     187.305    -113.678
  H       79.322     180.282    -111.258
  H       82.667     188.814    -112.807
  P       78.731     190.449    -110.345
  C       80.028     192.492    -109.512
  O       80.121     191.178    -110.033
  O       77.941     190.059    -109.139
  O       77.943     191.527    -111.236
  H       77.494     192.167    -110.646
  H       80.992     192.773    -109.081
  H       79.262     192.552    -108.732
  H       79.781     193.188    -110.317
  H       84.366     184.924    -108.753
  H       83.025     184.397    -109.741
  H       83.152     186.073    -109.262

 3  4  5  6  7  8  9  10  11  12  13  23  27  28  29  30  32 0
 6-311+G(2d,p)
 ****
 34  35 0
 6-311+G(2d,p)
 ****
 1  2  14  15  16  17  18  19  20  21  22  24  25  26 0
 3-21G
 ****
 31  33  36  37  38  39  40  41  42  43  44  45  46 0
 3-21G
 ****


