%nproc=1
%NoSave
%Mem=1900MB
#P OB98/GEN NMR

erre ene a

0 1
  C      489.558     -94.546    -408.467
  O      489.169     -93.962    -409.700
  P      490.217     -93.148    -410.599
  C      490.674     -91.314    -408.852
  O      490.085     -91.627    -410.108
  C      490.692     -89.801    -408.636
  O      491.313     -89.184    -409.787
  C      489.321     -89.134    -408.520
  O      488.754     -89.174    -407.221
  C      489.677     -87.695    -408.867
  O      490.279     -87.051    -407.732
  C      490.716     -87.880    -409.982
  N      490.569     -85.251    -414.371
  C      491.288     -85.083    -413.234
  N      491.254     -85.814    -412.100
  C      490.400     -86.841    -412.229
  C      489.603     -87.149    -413.322
  C      489.712     -86.298    -414.434
  N      488.999     -86.485    -415.598
  N      488.836     -88.267    -413.069
  C      489.177     -88.640    -411.852
  N      490.123     -87.815    -411.309
  O      490.083     -93.379    -412.063
  O      491.648     -93.587    -410.029
  H      491.159     -87.460    -407.604
  H      492.347     -93.354    -410.674
  H      491.979     -84.241    -413.236
  H      488.768     -89.493    -411.330
  H      491.519     -87.144    -409.934
  H      488.807     -87.097    -409.152
  H      488.617     -89.523    -409.270
  H      491.307     -89.585    -407.756
  H      491.704     -91.688    -408.854
  H      489.235     -85.905    -416.389
  H      488.481     -87.350    -415.707
  H      490.126     -91.821    -408.057
  P      487.361     -89.964    -407.045
  C      486.082     -88.223    -408.524
  O      486.210     -88.870    -407.280
  O      487.251     -90.755    -405.787
  O      487.292     -90.855    -408.369
  H      487.189     -90.367    -409.199
  H      485.151     -87.651    -408.528
  H      486.045     -88.949    -409.339
  H      486.922     -87.536    -408.682
  H      488.718     -95.040    -408.026
  H      489.910     -93.782    -407.806
  H      490.340     -95.256    -408.640

 3  4  5  6  7  8  9  10  11  12  22  25  29  30  31  32 0
 6-311+G(2d,p)
 ****
 33  36  37 0
 6-311+G(2d,p)
 ****
 1  2  13  14  15  16  17  18  19  20  21  23  24  26 0
 3-21G
 ****
 27  28  34  35  38  39  40  41  42  43  44  45  46  47  48 0
 3-21G
 ****


