%nproc=1
%NoSave
%Mem=1900MB
#P OB98/GEN NMR

erre ene a

0 1
  C       45.781     183.127    -195.914
  O       44.765     182.560    -195.114
  P       44.873     181.055    -194.575
  C       47.017     181.736    -193.315
  O       46.423     180.806    -194.214
  C       47.705     180.994    -192.158
  O       48.764     180.150    -192.708
  C       48.347     181.951    -191.130
  O       47.953     181.713    -189.776
  C       49.832     181.806    -191.416
  O       50.666     182.198    -190.344
  C       49.919     180.342    -191.866
  N       51.171     180.040    -192.558
  C       52.206     179.506    -191.796
  O       52.130     179.265    -190.596
  N       53.391     179.305    -192.451
  C       53.674     179.683    -193.731
  O       54.789     179.560    -194.222
  C       52.551     180.281    -194.474
  C       51.362     180.408    -193.876
  O       44.275     180.015    -195.459
  O       44.202     181.141    -193.122
  H       50.651     181.487    -189.676
  H       44.637     181.761    -192.507
  H       54.149     178.917    -191.911
  H       52.750     180.599    -195.490
  H       50.517     180.847    -194.401
  H       49.823     179.660    -191.018
  H       50.072     182.461    -192.267
  H       48.039     182.989    -191.314
  H       46.956     180.351    -191.684
  H       46.235     182.386    -192.910
  H       47.728     182.374    -193.854
  P       47.888     182.826    -188.628
  C       45.305     182.974    -188.903
  O       46.536     183.663    -188.820
  O       49.125     183.650    -188.467
  O       47.603     181.976    -187.299
  H       47.983     182.438    -186.528
  H       44.612     183.566    -189.510
  H       44.884     182.867    -187.897
  H       45.424     181.988    -189.361
  H       45.517     184.133    -196.166
  H       45.892     182.552    -196.810
  H       46.704     183.125    -195.373

 3  4  5  6  7  8  9  10  11  12  13  23  28  29  30  31  32 0
 6-311+G(2d,p)
 ****
 33  34 0
 6-311+G(2d,p)
 ****
 1  2  14  15  16  17  18  19  20  21  22  24  25  26  27 0
 3-21G
 ****
 35  36  37  38  39  40  41  42  43  44  45 0
 3-21G
 ****


