%nproc=1
%NoSave
%Mem=1900MB
#P OB98/GEN NMR

erre ene a

0 1
  C      394.374     -10.883    -403.060
  O      394.749     -10.550    -401.740
  H      394.165      -9.973    -403.627
  H      395.203     -11.412    -403.536
  H      393.495     -11.533    -403.060
  P      393.608      -9.918    -400.802
  C      394.328      -7.475    -401.323
  O      393.307      -8.460    -401.405
  C      393.747      -6.082    -401.579
  O      392.757      -5.792    -400.558
  C      394.797      -4.967    -401.542
  O      394.490      -4.005    -402.552
  C      394.606      -4.349    -400.165
  O      395.049      -3.000    -400.112
  C      393.103      -4.529    -399.959
  N      392.811      -1.620    -395.773
  C      393.107      -1.326    -397.060
  N      393.157      -2.162    -398.118
  C      392.813      -3.410    -397.752
  C      392.488      -3.860    -396.483
  C      392.505      -2.901    -395.458
  N      392.243      -3.198    -394.140
  N      392.230      -5.217    -396.504
  C      392.396      -5.576    -397.762
  N      392.751      -4.520    -398.553
  O      394.410      -9.607    -399.448
  O      392.416     -10.780    -400.562
  H      395.059      -2.718    -399.173
  H      394.505     -10.430    -398.934
  H      393.340      -0.285    -397.262
  H      392.277      -6.580    -398.147
  H      392.519      -3.739    -400.446
  H      395.172      -4.924    -399.422
  H      395.814      -5.335    -401.690
  H      393.217      -6.094    -402.539
  H      395.095      -7.695    -402.071
  H      392.331      -2.460    -393.460
  H      392.074      -4.157    -393.876
  H      394.781      -7.508    -400.327
  P      395.437      -3.991    -403.850
  C      397.377      -2.433    -403.124
  O      396.951      -3.764    -403.371
  O      395.054      -2.616    -404.573
  O      395.225      -5.161    -404.755
  H      394.873      -2.774    -405.518
  H      398.401      -2.438    -402.814
  H      396.773      -2.003    -402.353
  H      397.278      -1.855    -404.019

 6  7  8  9  10  11  12  13  14  15  25  28  32  33  34  35 0
 6-311+G(2d,p)
 ****
 36  39  40 0
 6-311+G(2d,p)
 ****
 1  2  3  4  5  16  17  18  19  20  21  22  23  24 0
 3-21G
 ****
 26  27  29  30  31  37  38  41  42  43  44  45  46  47 0
 3-21G
 ****
 48 0
 3-21G
 ****


