%nproc=1
%NoSave
%Mem=1900MB
#P OB98/GEN NMR

erre ene a

0 1
  C     -194.929    -884.811      88.281
  O     -194.145    -883.737      87.803
  H     -194.864    -884.869      89.371
  H     -195.971    -884.637      87.997
  H     -194.593    -885.753      87.836
  P     -192.571    -883.798      88.105
  C     -191.291    -884.338      90.300
  O     -192.430    -883.733      89.703
  C     -191.496    -884.434      91.812
  O     -192.597    -885.322      92.110
  C     -190.299    -884.989      92.571
  O     -189.304    -884.004      92.808
  C     -190.964    -885.416      93.868
  O     -191.211    -884.260      94.692
  C     -192.294    -885.998      93.359
  N     -192.390    -890.618      95.559
  C     -192.443    -889.373      96.079
  N     -192.405    -888.194      95.427
  C     -192.306    -888.388      94.100
  C     -192.234    -889.600      93.426
  C     -192.288    -890.758      94.221
  N     -192.219    -892.033      93.694
  N     -192.098    -889.397      92.066
  C     -192.125    -888.085      91.920
  N     -192.236    -887.435      93.118
  O     -192.040    -882.363      87.635
  O     -191.828    -884.917      87.456
  H     -191.762    -884.565      95.438
  H     -191.078    -882.398      87.469
  H     -192.516    -889.316      97.158
  H     -192.059    -887.562      90.974
  H     -193.124    -885.814      94.046
  H     -190.359    -886.105      94.457
  H     -189.880    -885.875      92.077
  H     -191.766    -883.434      92.184
  H     -190.408    -883.727      90.093
  H     -192.085    -892.780      94.355
  H     -191.994    -892.140      92.717
  H     -191.146    -885.334      89.874
  P     -187.768    -884.473      92.744
  C     -186.648    -886.444      94.023
  O     -187.514    -885.308      94.081
  O     -186.968    -883.113      92.999
  O     -187.375    -885.144      91.473
  H     -186.076    -883.155      92.587
  H     -186.582    -886.892      94.993
  H     -185.674    -886.134      93.706
  H     -187.040    -887.156      93.327

 6  7  8  9  10  11  12  13  14  15  25  28  32  33  34  35 0
 6-311+G(2d,p)
 ****
 36  39  40 0
 6-311+G(2d,p)
 ****
 1  2  3  4  5  16  17  18  19  20  21  22  23  24 0
 3-21G
 ****
 26  27  29  30  31  37  38  41  42  43  44  45  46  47 0
 3-21G
 ****
 48 0
 3-21G
 ****


