%nproc=1
%NoSave
%Mem=1900MB
#P OB98/GEN NMR

erre ene a

0 1
  C      -64.324     -53.567      70.251
  O      -64.378     -54.863      70.804
  P      -65.677     -55.784      70.642
  C      -66.245     -55.266      73.101
  O      -66.077     -56.281      72.119
  C      -66.435     -55.894      74.487
  O      -66.739     -54.831      75.443
  C      -67.590     -56.913      74.529
  O      -67.234     -58.189      75.063
  C      -68.670     -56.164      75.293
  O      -69.649     -57.003      75.877
  C      -67.836     -55.305      76.248
  N      -68.607     -54.213      76.838
  C      -69.618     -54.559      77.728
  O      -69.894     -55.711      78.052
  N      -70.374     -53.526      78.207
  C      -70.298     -52.226      77.808
  O      -71.073     -51.368      78.206
  C      -69.236     -51.926      76.836
  C      -68.435     -52.909      76.417
  O      -65.564     -56.878      69.636
  O      -66.835     -54.723      70.325
  H      -69.191     -57.768      76.272
  H      -66.974     -54.051      71.014
  H      -71.111     -53.763      78.853
  H      -69.159     -50.905      76.492
  H      -67.644     -52.718      75.702
  H      -67.412     -55.902      77.056
  H      -69.193     -55.513      74.581
  H      -67.951     -57.141      73.519
  H      -65.488     -56.358      74.776
  H      -67.130     -54.676      72.852
  H      -65.384     -54.589      73.087
  P      -66.997     -59.513      74.197
  C      -69.344     -60.383      74.903
  O      -67.965     -60.656      74.760
  O      -65.570     -59.918      74.032
  O      -67.649     -59.153      72.779
  H      -67.190     -59.646      72.074
  H      -69.740     -60.999      75.713
  H      -69.861     -60.649      73.978
  H      -69.524     -59.331      75.136
  H      -63.375     -53.124      70.472
  H      -65.104     -52.967      70.671
  H      -64.452     -53.626      69.190

 3  4  5  6  7  8  9  10  11  12  13  23  28  29  30  31  32 0
 6-311+G(2d,p)
 ****
 33  34 0
 6-311+G(2d,p)
 ****
 1  2  14  15  16  17  18  19  20  21  22  24  25  26  27 0
 3-21G
 ****
 35  36  37  38  39  40  41  42  43  44  45 0
 3-21G
 ****


