%nproc=1
%NoSave
%Mem=1900MB
#P OB98/GEN NMR

erre ene a

0 1
  C      -25.334     -42.325     249.330
  O      -23.951     -42.152     249.568
  H      -25.479     -42.588     248.280
  H      -25.865     -41.393     249.535
  H      -25.732     -43.128     249.955
  P      -23.508     -41.848     251.080
  C      -24.387     -42.696     253.368
  O      -24.193     -42.983     251.991
  C      -24.387     -43.983     254.192
  O      -25.590     -44.744     253.877
  C      -23.182     -44.902     253.930
  O      -22.835     -45.541     255.165
  C      -23.756     -45.955     252.995
  O      -22.998     -47.162     253.000
  C      -25.165     -46.089     253.571
  N      -26.153     -50.450     251.265
  C      -25.184     -50.126     252.195
  N      -24.345     -51.116     252.570
  N      -25.046     -48.934     252.713
  C      -25.974     -48.049     252.271
  C      -26.979     -48.243     251.352
  C      -27.101     -49.562     250.766
  O      -27.927     -49.905     249.924
  N      -27.692     -47.087     251.152
  C      -27.120     -46.201     251.947
  N      -26.074     -46.736     252.647
  O      -24.342     -40.528     251.430
  O      -22.043     -41.658     251.292
  H      -22.855     -47.424     253.932
  H      -23.805     -39.732     251.254
  H      -26.205     -51.380     250.887
  H      -27.419     -45.166     252.051
  H      -25.183     -46.673     254.499
  H      -23.786     -45.573     251.967
  H      -24.420     -52.069     252.251
  H      -22.305     -44.391     253.518
  H      -23.656     -50.910     253.285
  H      -24.453     -43.718     255.253
  H      -25.351     -42.190     253.492
  H      -23.588     -42.033     253.713
  P      -21.799     -44.800     256.134
  C      -21.924     -43.732     258.503
  O      -22.627     -44.140     257.338
  O      -21.355     -43.524     255.269
  O      -20.625     -45.632     256.531
  H      -20.457     -43.248     255.526
  H      -22.613     -43.315     259.207
  H      -21.194     -42.996     258.239
  H      -21.436     -44.578     258.940

 6  7  8  9  10  11  12  13  14  15  26  29  33  34 0
 6-311+G(2d,p)
 ****
 36  38  39  40  41 0
 6-311+G(2d,p)
 ****
 1  2  3  4  5  16  17  18  19  20  21  22  23  24  25 0
 3-21G
 ****
 27  28  30  31  32  35  37  42  43  44  45  46  47 0
 3-21G
 ****
 48  49 0
 3-21G
 ****


