%nproc=1
%NoSave
%Mem=1900MB
#P OB98/GEN NMR

erre ene a

0 1
  C      253.831    -298.310      34.557
  O      254.656    -297.862      35.611
  H      253.673    -299.387      34.633
  H      252.864    -297.805      34.626
  H      254.286    -298.067      33.592
  P      256.119    -298.513      35.713
  C      257.294    -296.237      35.306
  O      257.110    -297.575      34.863
  C      258.780    -295.959      35.518
  O      259.455    -296.087      34.240
  C      259.096    -294.565      36.087
  O      259.827    -294.685      37.312
  C      260.005    -293.929      35.046
  O      261.078    -293.182      35.617
  C      260.511    -295.119      34.242
  N      263.587    -292.157      31.459
  C      263.703    -292.633      32.720
  N      262.901    -293.505      33.365
  C      261.901    -293.911      32.566
  C      261.666    -293.535      31.255
  C      262.554    -292.597      30.702
  N      262.403    -292.070      29.438
  N      260.532    -294.157      30.761
  C      260.070    -294.864      31.772
  N      260.854    -294.732      32.888
  O      255.994    -299.836      34.817
  O      256.579    -298.824      37.097
  H      260.673    -292.508      36.194
  H      256.364    -300.596      35.304
  H      264.549    -292.258      33.287
  H      259.158    -295.448      31.767
  H      261.394    -295.580      34.702
  H      259.407    -293.252      34.421
  H      258.199    -293.960      36.248
  H      259.185    -296.738      36.176
  H      256.767    -296.092      36.256
  H      263.016    -291.318      29.168
  H      261.576    -292.309      28.911
  H      256.872    -295.554      34.564
  P      259.459    -293.634      38.475
  C      257.973    -295.148      39.980
  O      258.032    -294.059      39.070
  O      259.134    -292.296      37.656
  O      260.549    -293.432      39.473
  H      259.310    -291.514      38.214
  H      256.959    -295.305      40.283
  H      258.572    -294.928      40.839
  H      258.344    -296.031      39.504

 6  7  8  9  10  11  12  13  14  15  25  28  32  33  34  35 0
 6-311+G(2d,p)
 ****
 36  39  40 0
 6-311+G(2d,p)
 ****
 1  2  3  4  5  16  17  18  19  20  21  22  23  24 0
 3-21G
 ****
 26  27  29  30  31  37  38  41  42  43  44  45  46  47  48 0
 3-21G
 ****


