%nproc=1
%NoSave
%Mem=1900MB
#P OB98/GEN NMR

erre ene a

0 1
  C      991.015     485.024    -511.269
  O      991.910     483.990    -510.911
  H      990.091     484.574    -511.639
  H      991.451     485.630    -512.068
  H      990.791     485.646    -510.404
  P      993.323     484.444    -510.304
  C      993.661     482.618    -508.468
  O      994.025     483.107    -509.758
  C      992.405     481.748    -508.563
  O      992.712     480.576    -509.378
  C      991.899     481.235    -507.195
  O      990.472     481.084    -507.274
  C      992.558     479.868    -507.128
  O      991.927     479.077    -506.138
  C      992.374     479.424    -508.579
  N      993.125     474.414    -507.889
  C      992.140     475.259    -507.489
  N      992.013     476.569    -507.718
  C      993.018     477.024    -508.480
  C      994.086     476.297    -508.984
  C      994.119     474.936    -508.654
  N      995.137     474.079    -509.056
  N      994.932     477.106    -509.708
  C      994.376     478.312    -509.659
  N      993.213     478.303    -508.929
  O      992.912     485.233    -508.977
  O      994.179     485.271    -511.211
  H      990.959     479.065    -506.263
  H      992.827     486.184    -509.160
  H      991.360     474.789    -506.885
  H      994.770     479.216    -510.110
  H      991.340     479.145    -508.807
  H      993.609     479.949    -506.865
  H      992.157     481.894    -506.375
  H      991.619     482.311    -509.101
  H      993.473     483.477    -507.806
  H      994.491     482.024    -508.071
  H      995.100     473.126    -508.758
  H      995.913     474.463    -509.589
  P      989.539     482.037    -506.380
  C      987.538     482.283    -508.047
  O      987.993     481.834    -506.779
  O      989.857     483.485    -506.987
  O      989.833     482.018    -504.906
  H      990.003     484.116    -506.270
  H      986.494     482.071    -508.147
  H      988.080     481.779    -508.820
  H      987.697     483.338    -508.130

 6  7  8  9  10  11  12  13  14  15  25  28  32  33  34  35 0
 6-311+G(2d,p)
 ****
 36  37  40 0
 6-311+G(2d,p)
 ****
 1  2  3  4  5  16  17  18  19  20  21  22  23  24 0
 3-21G
 ****
 26  27  29  30  31  38  39 41  42  43  44  45  46  47  48 0
 3-21G
 ****


