%nproc=1
%NoSave
%Mem=1900MB
#P OB98/GEN NMR

erre ene a

0 1
  C     -245.503    -338.321     346.747
  O     -246.754    -338.070     347.365
  H     -245.107    -339.260     347.138
  H     -244.805    -337.516     346.983
  H     -245.622    -338.406     345.667
  P     -247.510    -336.729     346.908
  C     -247.480    -335.666     349.287
  O     -247.052    -335.584     347.936
  C     -247.101    -334.382     350.047
  O     -247.835    -333.260     349.455
  C     -247.463    -334.411     351.543
  O     -246.523    -333.571     352.236
  C     -248.839    -333.760     351.541
  O     -249.223    -333.391     352.850
  C     -248.584    -332.651     350.530
  N     -252.124    -329.017     351.258
  C     -250.987    -329.319     351.926
  N     -250.081    -330.288     351.665
  C     -250.447    -330.987     350.575
  C     -251.570    -330.797     349.782
  C     -252.445    -329.757     350.170
  N     -253.602    -329.463     349.489
  N     -251.597    -331.723     348.749
  C     -250.519    -332.453     348.915
  N     -249.792    -332.050     350.001
  O     -249.039    -337.013     347.305
  O     -247.376    -336.375     345.463
  H     -249.974    -332.762     352.818
  H     -249.524    -337.358     346.533
  H     -250.767    -328.684     352.795
  H     -250.208    -333.273     348.284
  H     -247.970    -331.843     350.946
  H     -249.595    -334.457     351.175
  H     -247.436    -335.417     351.973
  H     -246.037    -334.178     349.891
  H     -246.989    -336.529     349.757
  H     -248.573    -335.798     349.328
  H     -254.179    -328.715     349.843
  H     -253.860    -330.019     348.684
  P     -245.239    -334.233     352.937
  C     -246.550    -335.188     354.986
  O     -245.722    -335.453     353.859
  O     -244.840    -333.127     354.026
  O     -244.080    -334.526     352.031
  H     -243.889    -333.178     354.200
  H     -246.777    -336.107     355.486
  H     -247.458    -334.725     354.660
  H     -246.037    -334.533     355.659

 6  7  8  9  10  11  12  13  14  15  25  28  32  33  34  35 0
 6-311+G(2d,p)
 ****
 36  37  40 0
 6-311+G(2d,p)
 ****
 1  2  3  4  5  16  17  18  19  20  21  22  23  24 0
 3-21G
 ****
 26  27  29  30  31  38  39 41  42  43  44  45  46  47  48 0
 3-21G
 ****


