%nproc=1
%NoSave
%Mem=1900MB
#P OB98/GEN NMR

erre ene a

0 1
  C      362.256    -159.172    -194.119
  O      362.576    -158.053    -194.963
  P      363.985    -157.891    -195.714
  C      364.773    -155.910    -194.262
  O      364.485    -156.368    -195.575
  C      364.707    -154.377    -194.170
  O      365.791    -153.784    -194.960
  C      363.387    -153.766    -194.667
  O      363.083    -152.671    -193.789
  C      363.764    -153.271    -196.053
  O      362.874    -152.304    -196.575
  C      365.182    -152.742    -195.761
  N      365.999    -152.465    -196.944
  C      366.520    -151.171    -197.078
  O      366.270    -150.287    -196.266
  N      367.342    -150.913    -198.160
  C      367.585    -151.835    -199.029
  N      368.406    -151.506    -200.068
  C      367.038    -153.198    -198.939
  C      366.263    -153.448    -197.882
  O      363.974    -158.382    -197.126
  O      365.036    -158.725    -194.842
  H      365.686    -159.137    -195.430
  H      362.782    -151.594    -195.908
  H      367.274    -153.945    -199.683
  H      365.836    -154.432    -197.724
  H      365.110    -151.848    -195.139
  H      363.781    -154.129    -196.739
  H      362.545    -154.463    -194.659
  H      364.895    -154.095    -193.129
  H      368.771    -150.561    -200.098
  H      365.785    -156.238    -193.985
  H      368.673    -152.145    -200.794
  H      364.066    -156.366    -193.561
  P      362.304    -152.948    -192.410
  C      360.368    -154.445    -193.294
  O      360.764    -153.203    -192.765
  O      362.260    -151.489    -191.752
  O      362.955    -153.917    -191.470
  H      362.190    -151.575    -190.779
  H      359.451    -154.773    -192.796
  H      361.124    -155.219    -193.161
  H      360.159    -154.336    -194.369
  H      361.265    -159.056    -193.734
  H      362.951    -159.217    -193.307
  H      362.314    -160.076    -194.688

 3  4  5  6  7  8  9  10  11  12  13  24  27  28  29  30  32 0
 6-311+G(2d,p)
 ****
 34  35 0
 6-311+G(2d,p)
 ****
 1  2  14  15  16  17  18  19  20  21  22  23  25  26 0
 3-21G
 ****
 31  33  36  37  38  39  40  41  42  43  44  45  46 0
 3-21G
 ****


