%nproc=1
%NoSave
%Mem=1900MB
#P OB98/GEN NMR

erre ene a

0 1
  C      300.081     535.132      13.597
  O      298.970     536.009      13.662
  H      299.915     534.415      12.792
  H      300.185     534.587      14.542
  H      300.996     535.693      13.387
  P      299.029     537.163      14.774
  C      296.644     536.498      15.578
  O      298.004     536.729      15.930
  C      295.850     536.100      16.819
  O      296.273     534.790      17.268
  C      296.066     537.026      18.013
  O      295.321     538.226      17.906
  C      295.619     536.130      19.159
  O      294.191     536.159      19.318
  C      296.076     534.744      18.702
  N      298.135     533.424      23.183
  C      296.864     533.706      22.822
  N      296.394     534.038      21.599
  C      297.388     534.030      20.695
  C      298.727     533.760      20.913
  C      299.096     533.441      22.228
  N      300.395     533.177      22.604
  N      299.450     533.899      19.742
  C      298.559     534.238      18.829
  N      297.299     534.326      19.359
  O      298.296     538.393      14.057
  O      300.399     537.525      15.240
  H      293.962     537.073      19.561
  H      298.966     539.013      13.711
  H      296.127     533.669      23.617
  H      298.772     534.433      17.789
  H      295.319     533.975      18.901
  H      296.063     536.455      20.100
  H      297.134     537.243      18.131
  H      294.787     536.048      16.555
  H      296.592     535.691      14.840
  H      296.234     537.411      15.136
  H      300.600     533.023      23.573
  H      301.133     533.302      21.921
  P      295.750     539.452      18.844
  C      293.663     539.426      20.419
  O      295.064     539.217      20.278
  O      294.939     540.693      18.244
  O      297.213     539.711      18.896
  H      295.481     541.509      18.316
  H      293.373     539.227      21.429
  H      293.136     538.768      19.760
  H      293.427     540.440      20.173

 6  7  8  9  10  11  12  13  14  15  25  28  32  33  34  35 0
 6-311+G(2d,p)
 ****
 36  37  40 0
 6-311+G(2d,p)
 ****
 1  2  3  4  5  16  17  18  19  20  21  22  23  24 0
 3-21G
 ****
 26  27  29  30  31  38  39 41  42  43  44  45  46  47  48 0
 3-21G
 ****


