%nproc=1
%NoSave
%Mem=1900MB
#P OB98/GEN NMR

erre ene a

0 1
  C      -66.621     267.715      66.548
  O      -68.013     267.494      66.469
  P      -69.098     268.635      66.741
  C      -70.093     267.584      68.901
  O      -69.392     268.680      68.321
  C      -71.013     268.005      70.056
  O      -70.215     268.522      71.142
  C      -71.930     269.150      69.611
  O      -73.126     268.871      68.910
  C      -72.099     270.024      70.848
  O      -73.318     269.760      71.545
  C      -70.893     269.652      71.714
  N      -69.772     273.925      74.205
  C      -70.704     272.953      74.519
  N      -71.565     273.260      75.513
  N      -70.793     271.805      73.894
  C      -69.924     271.683      72.862
  C      -68.949     272.569      72.467
  C      -68.837     273.815      73.185
  O      -68.080     274.737      72.885
  N      -68.306     272.145      71.332
  C      -68.915     271.022      71.015
  N      -69.933     270.723      71.894
  O      -70.253     268.705      65.796
  O      -68.215     269.970      66.524
  H      -73.362     268.802      71.719
  H      -68.801     270.648      66.136
  H      -69.804     274.823      74.667
  H      -68.689     270.410      70.151
  H      -71.219     269.344      72.716
  H      -72.126     271.084      70.569
  H      -71.622     274.188      75.909
  H      -71.349     269.763      68.910
  H      -72.363     272.649      75.652
  H      -71.550     267.145      70.465
  H      -69.344     266.863      69.245
  H      -70.689     267.087      68.133
  P      -73.616     269.567      67.557
  C      -74.537     271.532      68.914
  O      -73.734     271.144      67.813
  O      -75.147     269.119      67.413
  O      -72.843     269.186      66.337
  H      -75.422     269.187      66.480
  H      -74.791     272.592      68.814
  H      -73.976     271.388      69.845
  H      -75.458     270.944      68.951
  H      -66.102     266.806      66.326
  H      -66.367     268.038      67.536
  H      -66.339     268.468      65.842

 3  4  5  6  7  8  9  10  11  12  23  26  30  31 0
 6-311+G(2d,p)
 ****
 33  35  36  37  38 0
 6-311+G(2d,p)
 ****
 1  2  13  14  15  16  17  18  19  20  21  22  24  25 0
 3-21G
 ****
 27  28  29  32  34  39  40  41  42  43  44  45  46  47  48  49 0
 3-21G
 ****


