%nproc=1
%NoSave
%Mem=1900MB
#P OB98/GEN NMR

erre ene a

0 1
  C     -215.875    -596.209     -48.580
  O     -216.274    -597.329     -49.362
  P     -215.742    -597.416     -50.877
  C     -218.163    -597.722     -51.786
  O     -216.964    -596.970     -51.826
  C     -218.618    -598.066     -53.210
  O     -219.724    -599.012     -53.131
  C     -219.101    -596.874     -54.037
  O     -218.767    -597.141     -55.409
  C     -220.619    -596.921     -53.869
  O     -221.315    -596.232     -54.908
  C     -220.846    -598.438     -53.846
  N     -225.892    -598.418     -54.224
  C     -224.932    -597.873     -55.071
  N     -225.397    -597.309     -56.209
  N     -223.655    -597.895     -54.824
  C     -223.340    -598.518     -53.655
  C     -224.195    -599.054     -52.718
  C     -225.611    -599.058     -53.018
  O     -226.486    -599.600     -52.340
  N     -223.517    -599.516     -51.626
  C     -222.240    -599.333     -51.937
  N     -222.084    -598.776     -53.179
  O     -215.622    -598.990     -51.118
  O     -214.457    -596.693     -51.158
  H     -222.266    -596.236     -54.674
  H     -214.722    -599.313     -50.935
  H     -226.866    -598.385     -54.475
  H     -221.407    -599.591     -51.307
  H     -220.874    -598.875     -54.849
  H     -220.895    -596.468     -52.909
  H     -226.362    -597.281     -56.468
  H     -218.676    -595.916     -53.731
  H     -224.708    -596.934     -56.849
  H     -217.792    -598.575     -53.726
  H     -218.947    -597.119     -51.311
  H     -218.024    -598.630     -51.201
  P     -217.925    -596.025     -56.213
  C     -219.999    -595.051     -57.424
  O     -218.926    -594.817     -56.533
  O     -217.718    -596.722     -57.642
  O     -216.618    -595.666     -55.601
  H     -216.864    -596.427     -58.029
  H     -220.780    -594.303     -57.239
  H     -220.431    -596.048     -57.294
  H     -219.656    -594.940     -58.463
  H     -216.302    -596.286     -47.602
  H     -216.215    -595.308     -49.047
  H     -214.808    -596.190     -48.503

 3  4  5  6  7  8  9  10  11  12  23  26  30  31 0
 6-311+G(2d,p)
 ****
 33  35  36  37  38 0
 6-311+G(2d,p)
 ****
 1  2  13  14  15  16  17  18  19  20  21  22  24  25 0
 3-21G
 ****
 27  28  29  32  34  39  40  41  42  43  44  45  46  47  48  49 0
 3-21G
 ****


