%nproc=1
%NoSave
%Mem=1900MB
#P OB98/GEN NMR

erre ene a

0 1
  C      198.823    -103.258     -36.163
  O      200.162    -103.150     -36.601
  H      198.809    -103.273     -35.071
  H      198.381    -104.186     -36.534
  H      198.236    -102.403     -36.513
  P      200.403    -102.995     -38.178
  C      201.606    -100.702     -37.898
  O      200.519    -101.419     -38.463
  C      201.576     -99.251     -38.378
  O      202.099     -99.202     -39.734
  C      200.167     -98.651     -38.408
  O      200.238     -97.272     -38.034
  C      199.770     -98.766     -39.870
  O      198.766     -97.841     -40.266
  C      201.120     -98.534     -40.557
  N      201.151     -99.054     -41.922
  C      200.383     -98.394     -42.876
  O      199.741     -97.365     -42.669
  N      200.368     -98.966     -44.122
  C      201.006    -100.113     -44.490
  O      200.935    -100.588     -45.616
  C      201.795    -100.769     -43.437
  C      201.829    -100.219     -42.222
  O      198.982    -103.374     -38.808
  O      201.518    -103.808     -38.744
  H      198.937    -104.332     -38.997
  H      198.024     -97.912     -39.632
  H      199.816     -98.499     -44.826
  H      202.309    -101.687     -43.690
  H      202.389    -100.686     -41.419
  H      201.368     -97.466     -40.561
  H      199.399     -99.777     -40.078
  H      199.468     -99.174     -37.756
  H      202.249     -98.653     -37.751
  H      202.545    -101.168     -38.212
  H      201.535    -100.742     -36.806
  P      200.182     -96.929     -36.466
  C      202.575     -95.883     -36.350
  O      201.707     -96.933     -35.961
  O      199.562     -98.274     -35.870
  O      199.411     -95.687     -36.169
  H      199.871     -99.078     -36.322
  H      203.544     -96.046     -35.926
  H      202.185     -94.950     -36.001
  H      202.652     -95.860     -37.417

 6  7  8  9  10  11  12  13  14  15  16  27  31  32  33  34  35 0
 6-311+G(2d,p)
 ****
 36  37 0
 6-311+G(2d,p)
 ****
 1  2  3  4  5  17  18  19  20  21  22  23  24  25 0
 3-21G
 ****
 26  28  29  30  38  39  40  41  42  43  44  45 0
 3-21G
 ****


