%nproc=1
%NoSave
%Mem=1900MB
#P OB98/GEN NMR

erre ene a

0 1
  C     -263.809     147.314      75.653
  O     -264.751     146.243      75.813
  P     -264.668     144.864      74.996
  C     -266.020     145.841      73.013
  O     -265.917     144.807      73.986
  C     -267.006     145.452      71.908
  O     -266.574     144.234      71.256
  C     -268.419     145.139      72.379
  O     -269.135     146.304      72.744
  C     -268.985     144.411      71.161
  O     -269.477     145.334      70.179
  C     -267.743     143.677      70.614
  N     -267.809     142.235      70.801
  C     -268.611     141.522      69.909
  O     -269.287     142.115      69.067
  N     -268.638     140.152      70.005
  C     -268.012     139.559      70.970
  N     -268.060     138.199      71.003
  C     -267.265     140.288      72.012
  C     -267.202     141.610      71.867
  O     -264.541     143.654      75.861
  O     -263.401     145.021      74.029
  H     -263.038     144.138      73.823
  H     -269.738     144.804      69.400
  H     -266.789     139.758      72.827
  H     -266.662     142.218      72.582
  H     -267.616     143.894      69.546
  H     -269.813     143.748      71.425
  H     -268.373     144.447      73.227
  H     -267.019     146.259      71.163
  H     -268.573     137.733      70.266
  H     -265.031     145.996      72.566
  H     -267.588     137.641      71.695
  H     -266.327     146.769      73.504
  P     -268.954     146.825      74.250
  C     -271.363     146.293      75.048
  O     -270.393     147.285      74.784
  O     -268.155     148.204      74.077
  O     -268.221     145.882      75.146
  H     -267.497     148.293      74.791
  H     -272.046     146.667      75.819
  H     -270.909     145.363      75.398
  H     -271.936     146.097      74.139
  H     -264.074     148.122      76.302
  H     -263.823     147.653      74.638
  H     -262.828     146.966      75.899

 3  4  5  6  7  8  9  10  11  12  13  24  27  28  29  30  32 0
 6-311+G(2d,p)
 ****
 34  35 0
 6-311+G(2d,p)
 ****
 1  2  14  15  16  17  18  19  20  21  22  23  25  26 0
 3-21G
 ****
 31  33  36  37  38  39  40  41  42  43  44  45  46 0
 3-21G
 ****


