%nproc=1
%NoSave
%Mem=1900MB
#P OB98/GEN NMR

erre ene a

0 1
  C     -223.001     541.513     519.674
  O     -222.673     540.880     520.903
  H     -222.202     542.214     519.425
  H     -223.941     542.067     519.767
  H     -223.079     540.776     518.875
  P     -223.718     539.844     521.532
  C     -222.279     538.587     523.268
  O     -223.248     539.594     523.060
  C     -221.989     538.432     524.772
  O     -221.184     539.572     525.173
  C     -223.281     538.427     525.623
  O     -223.367     537.306     526.497
  C     -223.294     539.819     526.244
  O     -223.993     539.909     527.477
  C     -221.798     540.178     526.333
  N     -221.541     541.615     526.365
  C     -221.353     542.212     527.614
  O     -221.380     541.611     528.695
  N     -221.119     543.572     527.608
  C     -221.080     544.358     526.490
  O     -220.861     545.571     526.542
  C     -221.312     543.684     525.208
  C     -221.523     542.359     525.200
  O     -223.946     538.596     520.742
  O     -225.062     540.695     521.701
  H     -223.827     540.792     527.853
  H     -225.685     540.469     520.986
  H     -220.978     544.007     528.504
  H     -221.284     544.273     524.303
  H     -221.684     541.827     524.266
  H     -221.348     539.733     527.231
  H     -223.787     540.516     525.541
  H     -224.170     538.311     524.986
  H     -221.395     537.527     524.931
  H     -221.379     538.860     522.739
  H     -222.636     537.620     522.873
  P     -224.715     536.536     526.871
  C     -223.809     534.083     526.669
  O     -224.326     535.122     527.503
  O     -225.784     536.547     525.812
  O     -225.278     537.380     528.139
  H     -226.259     537.334     528.083
  H     -223.607     533.216     527.263
  H     -222.904     534.416     526.204
  H     -224.528     533.839     525.915

 6  7  8  9  10  11  12  13  14  15  16  26  31  32  33  34  35 0
 6-311+G(2d,p)
 ****
 36  37 0
 6-311+G(2d,p)
 ****
 1  2  3  4  5  17  18  19  20  21  22  23  24  25 0
 3-21G
 ****
 27  28  29  30  38  39  40  41  42  43  44  45 0
 3-21G
 ****


