%nproc=1
%NoSave
%Mem=1900MB
#P OB98/GEN NMR

erre ene a

0 1
  C     -383.692    -258.006    -166.177
  O     -384.265    -257.109    -165.246
  H     -383.757    -259.018    -165.769
  H     -382.639    -257.756    -166.327
  H     -384.219    -257.975    -167.130
  P     -384.591    -255.613    -165.719
  C     -386.408    -256.325    -167.412
  O     -385.146    -255.701    -167.223
  C     -387.524    -255.276    -167.511
  O     -387.256    -254.418    -168.645
  C     -388.890    -255.932    -167.755
  O     -389.959    -255.145    -167.240
  C     -388.981    -255.960    -169.273
  O     -390.323    -256.041    -169.751
  C     -388.268    -254.661    -169.643
  N     -389.009    -255.010    -174.674
  C     -389.907    -255.219    -173.645
  N     -391.166    -255.567    -174.007
  N     -389.588    -255.121    -172.381
  C     -388.280    -254.846    -172.170
  C     -387.294    -254.638    -173.109
  C     -387.664    -254.714    -174.508
  O     -386.903    -254.556    -175.459
  N     -386.082    -254.385    -172.511
  C     -386.337    -254.443    -171.215
  N     -387.661    -254.694    -170.961
  O     -383.140    -254.958    -165.922
  O     -385.431    -254.807    -164.775
  H     -390.285    -256.064    -170.726
  H     -383.199    -253.988    -165.868
  H     -389.312    -255.069    -175.632
  H     -385.601    -254.298    -170.433
  H     -388.965    -253.818    -169.625
  H     -388.455    -256.850    -169.632
  H     -391.393    -255.837    -174.950
  H     -388.953    -256.935    -167.342
  H     -391.735    -256.021    -173.283
  H     -387.514    -254.638    -166.616
  H     -386.570    -256.978    -166.551
  H     -386.390    -256.958    -168.303
  P     -391.128    -255.880    -166.421
  C     -390.285    -255.346    -163.966
  O     -390.596    -256.288    -164.973
  O     -391.296    -257.278    -167.171
  O     -392.419    -255.115    -166.363
  H     -392.177    -257.340    -167.585
  H     -389.950    -255.859    -163.089
  H     -391.158    -254.773    -163.732
  H     -389.512    -254.693    -164.315

 6  7  8  9  10  11  12  13  14  15  26  29  33  34 0
 6-311+G(2d,p)
 ****
 36  38  39  40  41 0
 6-311+G(2d,p)
 ****
 1  2  3  4  5  16  17  18  19  20  21  22  23  24  25 0
 3-21G
 ****
 27  28  30  31  32  35  37  42  43  44  45  46  47 0
 3-21G
 ****
 48  49 0
 3-21G
 ****


