%nproc=1
%NoSave
%Mem=1900MB
#P OB98/GEN NMR

erre ene a

0 1
  C      224.768     -86.409    -346.178
  O      223.589     -86.005    -346.839
  H      225.084     -85.608    -345.506
  H      225.564     -86.590    -346.905
  H      224.586     -87.311    -345.588
  P      222.932     -87.051    -347.868
  C      222.876     -87.208    -350.469
  O      223.441     -86.581    -349.320
  C      223.705     -86.883    -351.714
  O      223.771     -85.446    -351.881
  C      225.139     -87.413    -351.645
  O      225.494     -87.977    -352.906
  C      225.977     -86.180    -351.353
  O      227.317     -86.313    -351.823
  C      225.155     -85.068    -352.021
  N      225.414     -83.763    -351.422
  C      226.672     -83.195    -351.656
  O      227.507     -83.803    -352.331
  N      226.977     -81.992    -351.082
  C      226.122     -81.422    -350.288
  N      226.489     -80.237    -349.727
  C      224.801     -82.002    -349.970
  C      224.516     -83.156    -350.569
  O      221.386     -86.642    -347.856
  O      223.181     -88.489    -347.558
  H      227.660     -87.184    -351.512
  H      220.825     -87.337    -348.279
  H      224.131     -81.499    -349.289
  H      223.567     -83.659    -350.397
  H      225.381     -85.011    -353.096
  H      226.015     -86.014    -350.269
  H      225.278     -88.166    -350.871
  H      223.178     -87.277    -352.591
  H      227.405     -79.875    -349.959
  H      221.850     -86.846    -350.602
  H      225.917     -79.723    -349.074
  H      222.856     -88.290    -350.310
  P      225.279     -89.566    -353.048
  C      226.705     -91.687    -352.610
  O      226.566     -90.289    -352.415
  O      225.426     -89.824    -354.619
  O      223.967     -90.041    -352.512
  H      224.547     -89.898    -355.034
  H      227.602     -92.026    -352.136
  H      226.754     -91.898    -353.658
  H      225.864     -92.192    -352.184

 6  7  8  9  10  11  12  13  14  15  16  26  30  31  32  33  35 0
 6-311+G(2d,p)
 ****
 37  38 0
 6-311+G(2d,p)
 ****
 1  2  3  4  5  17  18  19  20  21  22  23  24  25 0
 3-21G
 ****
 27  28  29  34  36  39  40  41  42  43  44  45  46 0
 3-21G
 ****


