%nproc=1
%NoSave
%Mem=1900MB
#P OB98/GEN NMR

erre ene a

0 1
  C       88.897     617.133     469.955
  O       89.684     616.409     470.892
  P       89.182     616.198     472.412
  C       89.461     613.658     472.002
  O       88.599     614.705     472.443
  C       88.639     612.548     471.351
  O       87.834     613.097     470.276
  C       89.464     611.433     470.719
  O       89.985     610.561     471.709
  C       88.439     610.821     469.768
  O       87.559     609.945     470.492
  C       87.665     612.065     469.282
  N       88.106     612.522     467.963
  C       87.528     611.888     466.863
  O       86.689     610.993     467.005
  N       87.888     612.299     465.599
  C       88.770     613.246     465.450
  N       89.042     613.664     464.181
  C       89.441     613.907     466.591
  C       89.058     613.500     467.801
  O       88.241     617.241     472.910
  O       90.527     616.069     473.259
  H       88.084     609.159     470.732
  H       90.878     616.937     473.583
  H       90.169     614.688     466.419
  H       89.489     613.946     468.692
  H       86.587     611.850     469.237
  H       88.896     610.241     468.954
  H       90.298     611.856     470.138
  H       87.952     612.131     472.109
  H       88.428     613.316     463.455
  H       89.992     613.256     472.868
  H       89.467     614.566     464.008
  H       90.193     614.077     471.291
  P       91.462     609.973     471.472
  C       92.295     610.124     473.925
  O       92.384     610.630     472.606
  O       91.927     610.684     470.112
  O       91.522     608.475     471.383
  H       91.826     610.066     469.360
  H       93.137     610.504     474.508
  H       92.331     609.027     473.925
  H       91.361     610.462     474.388
  H       89.401     617.160     469.011
  H       88.750     618.132     470.309
  H       87.948     616.652     469.839

 3  4  5  6  7  8  9  10  11  12  13  23  27  28  29  30  32 0
 6-311+G(2d,p)
 ****
 34  35 0
 6-311+G(2d,p)
 ****
 1  2  14  15  16  17  18  19  20  21  22  24  25  26 0
 3-21G
 ****
 31  33  36  37  38  39  40  41  42  43  44  45  46 0
 3-21G
 ****


