%nproc=1
%NoSave
%Mem=1900MB
#P OB98/GEN NMR

erre ene a

0 1
  C     -255.064    -658.032    -636.852
  O     -253.961    -658.527    -637.582
  H     -255.940    -658.026    -637.505
  H     -254.870    -657.008    -636.522
  H     -255.276    -658.667    -635.988
  P     -252.571    -658.766    -636.819
  C     -253.159    -661.012    -635.702
  O     -252.905    -659.626    -635.508
  C     -252.866    -661.780    -634.419
  O     -251.485    -661.606    -634.033
  C     -253.692    -661.320    -633.221
  O     -255.017    -661.798    -633.312
  C     -252.870    -661.895    -632.078
  O     -253.130    -663.297    -631.910
  C     -251.428    -661.672    -632.590
  N     -250.808    -660.467    -632.029
  C     -249.797    -660.674    -631.098
  O     -249.427    -661.790    -630.741
  N     -249.255    -659.543    -630.551
  C     -249.676    -658.265    -630.773
  O     -249.310    -657.304    -630.101
  C     -250.693    -658.103    -631.821
  C     -251.218    -659.195    -632.381
  O     -251.746    -657.546    -636.581
  O     -251.807    -659.819    -637.753
  H     -251.144    -659.349    -638.292
  H     -254.095    -663.388    -631.781
  H     -248.551    -659.682    -629.839
  H     -251.009    -657.098    -632.073
  H     -251.991    -659.101    -633.135
  H     -250.794    -662.529    -632.336
  H     -253.089    -661.412    -631.124
  H     -253.675    -660.224    -633.153
  H     -253.028    -662.848    -634.612
  H     -252.505    -661.377    -636.503
  H     -254.203    -661.146    -636.007
  P     -256.201    -661.119    -632.472
  C     -257.542    -659.836    -634.241
  O     -256.591    -659.738    -633.190
  O     -255.953    -661.008    -631.007
  O     -257.472    -662.048    -632.768
  H     -257.868    -662.328    -631.917
  H     -257.727    -658.863    -634.646
  H     -258.455    -660.243    -633.859
  H     -257.160    -660.475    -635.009

 6  7  8  9  10  11  12  13  14  15  16  27  31  32  33  34  35 0
 6-311+G(2d,p)
 ****
 36  37 0
 6-311+G(2d,p)
 ****
 1  2  3  4  5  17  18  19  20  21  22  23  24  25 0
 3-21G
 ****
 26  28  29  30  38  39  40  41  42  43  44  45 0
 3-21G
 ****


