%nproc=1
%NoSave
%Mem=1900MB
#P OB98/GEN NMR

erre ene a

0 1
  C      381.831     138.819    -131.871
  O      381.675     138.616    -133.262
  H      381.240     138.067    -131.342
  H      381.472     139.814    -131.588
  H      382.884     138.708    -131.592
  P      382.377     139.697    -134.226
  C      382.652     137.958    -136.153
  O      382.037     139.157    -135.703
  C      381.680     137.169    -137.026
  O      380.575     136.673    -136.233
  C      381.041     137.978    -138.150
  O      381.901     138.173    -139.262
  C      379.875     137.064    -138.498
  O      380.356     135.924    -139.234
  C      379.393     136.657    -137.087
  N      378.359     137.551    -136.557
  C      377.028     137.182    -136.788
  O      376.761     136.159    -137.412
  N      376.025     138.010    -136.338
  C      376.319     139.095    -135.689
  N      375.281     139.873    -135.272
  C      377.703     139.515    -135.409
  C      378.661     138.707    -135.861
  O      383.936     139.362    -134.081
  O      382.021     141.124    -133.980
  H      381.142     135.598    -138.761
  H      384.453     139.878    -134.750
  H      377.903     140.436    -134.876
  H      379.708     138.951    -135.693
  H      379.001     135.631    -137.085
  H      379.118     137.545    -139.115
  H      380.643     138.932    -137.789
  H      382.216     136.293    -137.418
  H      374.345     139.586    -135.530
  H      382.941     137.365    -135.273
  H      375.412     140.805    -134.894
  H      383.552     138.190    -136.733
  P      381.387     139.146    -140.433
  C      383.593     140.424    -140.956
  O      382.643     139.448    -141.377
  O      381.145     140.532    -139.675
  O      380.156     138.675    -141.141
  H      380.387     141.016    -140.062
  H      384.366     140.509    -141.691
  H      384.020     140.126    -140.021
  H      383.106     141.369    -140.840

 6  7  8  9  10  11  12  13  14  15  16  26  30  31  32  33  35 0
 6-311+G(2d,p)
 ****
 37  38 0
 6-311+G(2d,p)
 ****
 1  2  3  4  5  17  18  19  20  21  22  23  24  25 0
 3-21G
 ****
 27  28  29  34  36  39  40  41  42  43  44  45  46 0
 3-21G
 ****


