%nproc=1
%NoSave
%Mem=1900MB
#P OB98/GEN NMR

erre ene a

0 1
  C     -232.485    -528.163      25.908
  O     -231.972    -527.394      27.003
  P     -230.423    -526.990      27.109
  C     -230.557    -524.591      26.171
  O     -230.318    -525.400      27.322
  C     -230.049    -523.162      26.369
  O     -229.833    -522.513      25.100
  C     -230.994    -522.253      27.151
  O     -230.901    -522.515      28.538
  C     -230.508    -520.873      26.721
  O     -229.344    -520.491      27.472
  C     -230.138    -521.113      25.249
  N     -232.466    -517.152      22.998
  C     -231.414    -517.222      23.845
  N     -230.856    -518.314      24.405
  C     -231.473    -519.429      23.990
  C     -232.566    -519.515      23.131
  C     -233.067    -518.306      22.625
  N     -234.146    -518.239      21.774
  N     -232.947    -520.829      22.956
  C     -232.095    -521.526      23.685
  N     -231.186    -520.727      24.324
  O     -229.571    -527.516      25.996
  O     -229.939    -527.584      28.516
  H     -229.628    -520.354      28.398
  H     -228.986    -527.781      28.481
  H     -230.962    -516.267      24.110
  H     -232.089    -522.604      23.774
  H     -229.233    -520.562      24.962
  H     -231.259    -520.095      26.866
  H     -232.021    -522.400      26.805
  H     -229.073    -523.222      26.872
  H     -231.639    -524.572      25.981
  H     -234.471    -517.332      21.485
  H     -234.634    -519.092      21.527
  H     -230.059    -525.052      25.312
  P     -232.164    -522.268      29.489
  C     -233.727    -524.299      29.382
  O     -232.626    -523.702      30.040
  O     -233.252    -521.428      28.914
  O     -231.530    -521.584      30.797
  H     -232.193    -520.991      31.200
  H     -234.655    -523.864      29.748
  H     -233.724    -525.367      29.602
  H     -233.655    -524.166      28.298
  H     -233.536    -528.315      26.040
  H     -231.989    -529.111      25.874
  H     -232.313    -527.638      24.992

 3  4  5  6  7  8  9  10  11  12  22  25  29  30  31  32 0
 6-311+G(2d,p)
 ****
 33  36  37 0
 6-311+G(2d,p)
 ****
 1  2  13  14  15  16  17  18  19  20  21  23  24  26 0
 3-21G
 ****
 27  28  34  35  38  39  40  41  42  43  44  45  46  47  48 0
 3-21G
 ****


