%nproc=1
%NoSave
%Mem=1900MB
#P OB98/GEN NMR

erre ene a

0 1
  C     -115.370    -726.778      20.193
  O     -115.785    -725.414      20.062
  P     -117.036    -725.116      19.100
  C     -118.719    -724.715      21.042
  O     -118.375    -725.481      19.899
  C     -119.696    -725.482      21.933
  O     -119.067    -726.593      22.601
  C     -120.292    -724.638      23.047
  O     -121.282    -723.753      22.543
  C     -120.828    -725.717      23.971
  O     -122.094    -726.223      23.474
  C     -119.762    -726.815      23.853
  N     -118.991    -728.056      28.752
  C     -120.076    -728.210      27.943
  N     -120.190    -727.837      26.660
  C     -119.055    -727.294      26.203
  C     -117.888    -727.071      26.911
  C     -117.876    -727.485      28.245
  N     -116.790    -727.318      29.082
  N     -116.926    -726.464      26.103
  C     -117.513    -726.302      24.941
  N     -118.793    -726.787      24.949
  O     -116.917    -726.270      17.994
  O     -117.007    -723.747      18.483
  H     -122.734    -725.471      23.515
  H     -116.635    -725.896      17.146
  H     -120.939    -728.683      28.400
  H     -117.071    -725.825      24.077
  H     -120.195    -727.819      23.813
  H     -121.003    -725.357      24.987
  H     -119.511    -724.067      23.558
  H     -120.500    -725.875      21.286
  H     -119.162    -723.757      20.738
  H     -116.901    -727.568      30.068
  H     -115.985    -726.804      28.746
  H     -117.792    -724.474      21.596
  P     -120.879    -722.205      22.327
  C     -121.898    -722.262      19.960
  O     -120.711    -722.070      20.724
  O     -119.351    -722.208      22.826
  O     -121.785    -721.226      22.981
  H     -118.851    -722.966      22.480
  H     -121.653    -722.106      18.906
  H     -122.650    -721.520      20.238
  H     -122.284    -723.286      20.096
  H     -114.533    -726.834      20.858
  H     -115.089    -727.159      19.233
  H     -116.177    -727.360      20.586

 3  4  5  6  7  8  9  10  11  12  22  25  29  30  31  32 0
 6-311+G(2d,p)
 ****
 33  36  37 0
 6-311+G(2d,p)
 ****
 1  2  13  14  15  16  17  18  19  20  21  23  24  26 0
 3-21G
 ****
 27  28  34  35  38  39  40  41  42  43  44  45  46  47  48 0
 3-21G
 ****


