%nproc=1
%NoSave
%Mem=1900MB
#P OB98/GEN NMR

erre ene a

0 1
  C     -134.776     313.064      46.161
  O     -135.076     313.448      47.507
  P     -133.837     313.674      48.501
  C     -132.608     315.687      47.359
  O     -133.474     315.231      48.388
  C     -131.582     316.665      47.932
  O     -130.669     317.110      46.899
  C     -132.189     317.933      48.511
  O     -132.807     317.686      49.764
  C     -130.963     318.837      48.568
  O     -130.174     318.537      49.729
  C     -130.202     318.423      47.291
  N     -130.342     319.384      46.205
  C     -129.289     320.281      46.051
  O     -128.306     320.297      46.790
  N     -129.416     321.181      45.028
  C     -130.481     321.284      44.180
  O     -130.533     322.103      43.273
  C     -131.583     320.342      44.422
  C     -131.467     319.447      45.408
  O     -132.664     312.933      47.707
  O     -134.093     313.163      49.879
  H     -132.743     313.022      46.742
  H     -130.055     317.566      49.738
  H     -128.658     321.831      44.891
  H     -132.455     320.412      43.786
  H     -132.272     318.746      45.603
  H     -129.133     318.311      47.509
  H     -131.228     319.897      48.617
  H     -132.923     318.347      47.811
  H     -131.002     316.135      48.701
  H     -133.187     316.190      46.579
  H     -132.118     314.823      46.901
  P     -134.328     318.177      49.931
  C     -135.573     316.192      48.773
  O     -135.230     316.854      49.969
  O     -134.613     318.800      48.484
  O     -134.530     319.130      51.063
  H     -134.284     318.243      47.760
  H     -135.870     315.168      49.012
  H     -134.732     316.160      48.077
  H     -136.418     316.702      48.303
  H     -135.687     312.948      45.612
  H     -134.242     312.137      46.165
  H     -134.175     313.820      45.700

 3  4  5  6  7  8  9  10  11  12  13  24  28  29  30  31  32 0
 6-311+G(2d,p)
 ****
 33  34 0
 6-311+G(2d,p)
 ****
 1  2  14  15  16  17  18  19  20  21  22  23  25  26  27 0
 3-21G
 ****
 35  36  37  38  39  40  41  42  43  44  45 0
 3-21G
 ****


