%nproc=1
%NoSave
%Mem=1900MB
#P OB98/GEN NMR

erre ene a

0 1
  C      -89.540     205.960     368.026
  O      -90.549     205.378     367.201
  P      -90.871     205.831     365.704
  C      -93.488     205.830     365.886
  O      -92.315     205.267     365.310
  C      -94.623     204.809     366.062
  O      -94.175     203.730     366.924
  C      -95.820     205.453     366.766
  O      -96.767     206.198     366.021
  C      -96.429     204.331     367.595
  O      -97.493     203.660     366.915
  C      -95.253     203.378     367.817
  N      -96.204     202.143     372.689
  C      -97.028     202.031     371.583
  N      -98.280     201.585     371.806
  N      -96.656     202.352     370.372
  C      -95.409     202.866     370.302
  C      -94.508     203.043     371.330
  C      -94.906     202.631     372.660
  O      -94.213     202.695     373.669
  N      -93.344     203.615     370.883
  C      -93.548     203.810     369.596
  N      -94.790     203.364     369.194
  O      -89.773     205.622     364.718
  O      -91.107     207.421     365.842
  H      -98.195     204.312     366.738
  H      -90.793     207.824     365.004
  H      -96.533     201.857     373.596
  H      -92.840     204.260     368.914
  H      -95.530     202.345     367.573
  H      -96.857     204.727     368.524
  H      -98.665     201.438     372.726
  H      -95.414     206.168     367.497
  H      -98.949     201.710     371.042
  H      -94.882     204.343     365.108
  H      -93.804     206.643     365.224
  H      -93.250     206.286     366.849
  P      -97.259     207.687     366.341
  C      -99.718     206.976     366.521
  O      -98.784     207.816     365.864
  O      -96.484     208.591     365.272
  O      -96.992     208.155     367.733
  H      -96.506     209.527     365.537
  H     -100.630     206.923     365.917
  H      -99.962     207.392     367.499
  H      -99.312     205.964     366.645
  H      -89.534     205.473     368.979
  H      -89.745     207.002     368.159
  H      -88.585     205.842     367.559

 3  4  5  6  7  8  9  10  11  12  23  26  30  31 0
 6-311+G(2d,p)
 ****
 33  35  36  37  38 0
 6-311+G(2d,p)
 ****
 1  2  13  14  15  16  17  18  19  20  21  22  24  25 0
 3-21G
 ****
 27  28  29  32  34  39  40  41  42  43  44  45  46  47  48  49 0
 3-21G
 ****


