%nproc=1
%NoSave
%Mem=1900MB
#P OB98/GEN NMR

erre ene a

0 1
  C     -123.239     122.859      -3.786
  O     -122.004     122.213      -3.518
  P     -121.735     121.702      -2.018
  C     -121.083     122.864       0.226
  O     -121.521     123.014      -1.116
  C     -121.107     124.206       0.956
  O     -122.497     124.616       1.118
  C     -120.472     124.200       2.352
  O     -119.903     125.499       2.560
  C     -121.667     124.011       3.272
  O     -121.406     124.443       4.608
  C     -122.724     124.827       2.531
  N     -125.996     124.188       6.343
  C     -124.655     124.538       6.374
  N     -124.143     124.816       7.590
  N     -123.897     124.615       5.311
  C     -124.561     124.326       4.161
  C     -125.872     123.933       4.009
  C     -126.709     123.891       5.191
  O     -127.917     123.669       5.195
  N     -126.159     123.638       2.697
  C     -125.048     123.938       2.054
  N     -124.064     124.404       2.889
  O     -120.270     121.069      -2.116
  O     -122.743     120.738      -1.468
  H     -122.071     124.026       5.193
  H     -120.313     120.105      -2.278
  H     -126.536     124.170       7.193
  H     -124.894     123.843       0.989
  H     -122.648     125.900       2.736
  H     -121.939     122.949       3.312
  H     -124.674     124.805       8.447
  H     -119.713     123.424       2.482
  H     -123.166     125.106       7.638
  H     -120.624     124.961       0.317
  H     -120.050     122.494       0.220
  H     -121.713     122.127       0.739
  P     -118.324     125.588       2.845
  C     -116.688     124.655       4.623
  O     -118.033     124.821       4.218
  O     -118.123     127.133       3.237
  O     -117.460     125.221       1.684
  H     -117.243     127.430       2.946
  H     -116.667     124.496       5.711
  H     -116.086     125.536       4.388
  H     -116.264     123.777       4.127
  H     -123.277     123.142      -4.817
  H     -123.325     123.732      -3.173
  H     -124.046     122.190      -3.569

 3  4  5  6  7  8  9  10  11  12  23  26  30  31 0
 6-311+G(2d,p)
 ****
 33  35  36  37  38 0
 6-311+G(2d,p)
 ****
 1  2  13  14  15  16  17  18  19  20  21  22  24  25 0
 3-21G
 ****
 27  28  29  32  34  39  40  41  42  43  44  45  46  47  48  49 0
 3-21G
 ****


