%nproc=1
%NoSave
%Mem=1900MB
#P OB98/GEN NMR

erre ene a

0 1
  C     -467.368    -967.333     965.863
  O     -466.123    -967.758     966.381
  H     -468.150    -967.567     966.594
  H     -467.589    -967.867     964.933
  H     -467.362    -966.257     965.682
  P     -464.818    -967.359     965.539
  C     -464.607    -965.210     967.035
  O     -464.595    -965.777     965.729
  C     -463.810    -963.904     967.041
  O     -462.397    -964.153     966.913
  C     -464.121    -962.989     965.870
  O     -465.397    -962.387     965.970
  C     -462.969    -962.000     965.977
  O     -463.205    -961.032     967.003
  C     -461.800    -962.943     966.379
  N     -460.912    -963.226     965.260
  C     -459.544    -963.027     965.499
  O     -459.157    -962.643     966.605
  N     -458.660    -963.243     964.473
  C     -459.092    -963.645     963.318
  N     -458.163    -963.824     962.344
  C     -460.518    -963.893     963.029
  C     -461.362    -963.662     964.037
  O     -465.331    -967.462     964.029
  O     -463.599    -968.165     965.837
  H     -462.375    -960.536     967.118
  H     -466.133    -966.947     963.855
  H     -460.830    -964.238     962.057
  H     -462.430    -963.815     963.903
  H     -461.204    -962.501     967.182
  H     -462.807    -961.449     965.049
  H     -464.020    -963.528     964.923
  H     -463.987    -963.404     968.005
  H     -457.198    -963.628     962.567
  H     -464.207    -965.911     967.774
  H     -458.381    -964.106     961.394
  H     -465.655    -965.016     967.302
  P     -466.128    -961.811     964.662
  C     -467.319    -964.002     964.042
  O     -466.322    -963.054     963.663
  O     -465.479    -960.611     964.049
  O     -467.622    -961.544     965.174
  H     -468.086    -962.338     965.499
  H     -467.365    -964.783     963.312
  H     -468.270    -963.515     964.103
  H     -467.070    -964.419     964.995

 6  7  8  9  10  11  12  13  14  15  16  26  30  31  32  33  35 0
 6-311+G(2d,p)
 ****
 37  38 0
 6-311+G(2d,p)
 ****
 1  2  3  4  5  17  18  19  20  21  22  23  24  25 0
 3-21G
 ****
 27  28  29  34  36  39  40  41  42  43  44  45  46 0
 3-21G
 ****


