%nproc=1
%NoSave
%Mem=1900MB
#P OB98/GEN NMR

erre ene a

0 1
  C      476.979     -33.121    -879.161
  O      475.662     -32.740    -878.758
  P      475.284     -32.939    -877.213
  C      474.922     -35.017    -875.676
  O      475.069     -34.516    -877.004
  C      475.198     -36.514    -875.633
  O      476.598     -36.757    -875.873
  C      474.895     -37.175    -874.292
  O      473.513     -37.473    -874.135
  C      475.698     -38.433    -874.403
  O      475.015     -39.406    -875.207
  C      476.961     -37.941    -875.113
  N      480.515     -39.906    -872.015
  C      479.534     -40.495    -872.715
  N      478.629     -39.903    -873.512
  C      478.778     -38.558    -873.512
  C      479.724     -37.840    -872.815
  C      480.636     -38.560    -872.028
  N      481.668     -37.971    -871.325
  N      479.574     -36.473    -873.046
  C      478.556     -36.405    -873.910
  N      478.059     -37.623    -874.201
  O      473.784     -32.354    -877.139
  O      476.208     -32.273    -876.245
  H      474.169     -39.601    -874.762
  H      473.583     -32.077    -876.215
  H      479.478     -41.570    -872.651
  H      478.169     -35.472    -874.305
  H      477.343     -38.687    -875.843
  H      475.895     -38.904    -873.422
  H      475.264     -36.561    -873.458
  H      474.619     -37.005    -876.433
  H      473.883     -34.826    -875.367
  H      482.393     -38.564    -870.961
  H      481.880     -36.989    -871.527
  H      475.595     -34.463    -875.012
  P      473.019     -37.924    -872.685
  C      474.217     -39.533    -871.032
  O      473.798     -39.281    -872.376
  O      471.499     -38.397    -872.938
  O      473.110     -36.845    -871.654
  H      470.984     -38.301    -872.122
  H      474.461     -40.612    -870.938
  H      473.450     -39.271    -870.325
  H      475.126     -38.964    -870.815
  H      477.099     -32.938    -880.208
  H      477.126     -34.162    -878.962
  H      477.699     -32.549    -878.614

 3  4  5  6  7  8  9  10  11  12  22  25  29  30  31  32 0
 6-311+G(2d,p)
 ****
 33  36  37 0
 6-311+G(2d,p)
 ****
 1  2  13  14  15  16  17  18  19  20  21  23  24  26 0
 3-21G
 ****
 27  28  34  35  38  39  40  41  42  43  44  45  46  47  48 0
 3-21G
 ****


