%nproc=1
%NoSave
%Mem=1900MB
#P OB98/GEN NMR

erre ene a

0 1
  C       75.146     -41.391     123.330
  O       76.143     -40.532     123.854
  P       77.622     -40.672     123.239
  C       77.534     -38.373     122.006
  O       78.150     -39.181     122.995
  C       78.333     -37.082     121.825
  O       78.201     -36.243     122.990
  C       79.827     -37.294     121.621
  O       80.102     -37.624     120.272
  C       80.388     -35.944     122.052
  O       80.274     -34.978     120.990
  C       79.473     -35.579     123.229
  N       82.686     -34.320     126.921
  C       82.533     -33.786     125.655
  N       83.323     -32.734     125.348
  N       81.683     -34.239     124.773
  C       80.969     -35.301     125.214
  C       81.040     -35.928     126.436
  C       81.948     -35.384     127.419
  O       82.051     -35.757     128.585
  N       80.175     -36.988     126.509
  C       79.561     -36.980     125.343
  N       79.990     -35.965     124.529
  O       77.350     -41.238     121.770
  O       78.557     -41.536     124.026
  H       80.571     -35.382     120.155
  H       77.481     -42.205     121.742
  H       83.346     -33.918     127.563
  H       78.787     -37.672     125.050
  H       79.270     -34.503     123.275
  H       81.449     -36.002     122.309
  H       84.018     -32.348     125.967
  H       80.197     -38.078     122.293
  H       83.229     -32.333     124.423
  H       77.904     -36.538     120.974
  H       76.518     -38.126     122.325
  H       77.484     -38.932     121.066
  P       81.634     -37.882     119.871
  C       81.700     -40.469     119.677
  O       81.676     -39.226     119.003
  O       82.312     -38.299     121.260
  O       82.321     -36.706     119.263
  H       83.222     -37.949     121.297
  H       81.213     -41.218     119.048
  H       81.181     -40.420     120.638
  H       82.738     -40.767     119.843
  H       74.215     -41.198     123.821
  H       75.431     -42.409     123.494
  H       75.039     -41.215     122.280

 3  4  5  6  7  8  9  10  11  12  23  26  30  31 0
 6-311+G(2d,p)
 ****
 33  35  36  37  38 0
 6-311+G(2d,p)
 ****
 1  2  13  14  15  16  17  18  19  20  21  22  24  25 0
 3-21G
 ****
 27  28  29  32  34  39  40  41  42  43  44  45  46  47  48  49 0
 3-21G
 ****


