%nproc=1
%NoSave
%Mem=1900MB
#P OB98/GEN NMR

erre ene a

0 1
  C      159.648    -104.590     153.132
  O      160.448    -105.754     153.069
  H      159.598    -104.255     154.172
  H      158.633    -104.806     152.781
  H      160.094    -103.797     152.524
  P      160.604    -106.445     151.630
  C      159.012    -108.430     152.061
  O      159.197    -107.188     151.388
  C      157.610    -108.978     151.791
  O      157.602    -110.396     152.109
  C      156.520    -108.308     152.636
  O      155.322    -108.209     151.862
  C      156.302    -109.301     153.769
  O      155.015    -109.162     154.369
  C      156.533    -110.624     153.044
  N      154.613    -113.965     156.379
  C      154.028    -113.156     155.469
  N      154.618    -112.309     154.601
  C      155.964    -112.397     154.694
  C      156.702    -113.169     155.570
  C      155.967    -113.984     156.455
  N      156.551    -114.785     157.408
  N      158.053    -112.949     155.390
  C      158.128    -112.059     154.415
  N      156.887    -111.679     153.978
  O      161.813    -107.299     151.450
  O      160.498    -105.186     150.646
  H      154.909    -109.863     155.044
  H      159.755    -104.601     150.890
  H      152.939    -113.183     155.443
  H      159.047    -111.648     154.010
  H      155.648    -110.968     152.488
  H      157.054    -109.145     154.549
  H      156.806    -107.322     153.005
  H      157.395    -108.892     150.720
  H      159.155    -108.298     153.137
  H      155.949    -115.334     158.002
  H      157.559    -114.817     157.479
  H      159.774    -109.128     151.689
  P      155.079    -106.900     150.964
  C      153.266    -105.801     152.438
  O      154.590    -105.706     151.927
  O      154.257    -107.097     149.736
  O      156.572    -106.444     150.591
  H      156.594    -106.162     149.654
  H      153.062    -104.954     153.059
  H      153.169    -106.698     153.014
  H      152.571    -105.823     151.625

 6  7  8  9  10  11  12  13  14  15  25  28  32  33  34  35 0
 6-311+G(2d,p)
 ****
 36  39  40 0
 6-311+G(2d,p)
 ****
 1  2  3  4  5  16  17  18  19  20  21  22  23  24 0
 3-21G
 ****
 26  27  29  30  31  37  38  41  42  43  44  45  46  47 0
 3-21G
 ****
 48 0
 3-21G
 ****


