%nproc=1
%NoSave
%Mem=1900MB
#P OB98/GEN NMR

erre ene a

0 1
  C     -618.460     152.552    -565.737
  O     -618.836     153.662    -566.533
  P     -617.673     154.421    -567.335
  C     -618.385     156.864    -566.794
  O     -618.296     155.830    -567.773
  C     -619.232     158.021    -567.311
  O     -618.534     158.688    -568.376
  C     -620.577     157.621    -567.889
  O     -621.500     157.346    -566.856
  C     -620.928     158.832    -568.729
  O     -621.597     159.829    -567.934
  C     -619.539     159.331    -569.194
  N     -619.309     159.092    -570.611
  C     -619.784     160.089    -571.491
  O     -620.385     161.070    -571.040
  N     -619.603     159.907    -572.838
  C     -619.018     158.841    -573.279
  N     -618.865     158.723    -574.627
  C     -618.514     157.758    -572.393
  C     -618.701     157.963    -571.084
  O     -617.586     153.607    -568.712
  O     -616.354     154.476    -566.628
  H     -621.878     160.530    -568.566
  H     -616.705     153.673    -569.113
  H     -618.026     156.904    -572.816
  H     -618.361     157.217    -570.367
  H     -619.445     160.417    -569.016
  H     -621.601     158.576    -569.550
  H     -620.458     156.729    -568.540
  H     -619.366     158.751    -566.488
  H     -619.225     159.469    -575.213
  H     -617.385     157.228    -566.547
  H     -618.397     157.937    -575.059
  H     -618.835     156.439    -565.876
  P     -622.013     155.822    -566.686
  C     -624.249     157.063    -566.549
  O     -623.492     155.960    -566.103
  O     -621.188     155.315    -565.408
  O     -621.827     154.920    -567.859
  H     -621.334     154.368    -565.268
  H     -625.283     156.954    -566.204
  H     -624.250     157.124    -567.638
  H     -623.827     157.989    -566.126
  H     -619.327     152.144    -565.262
  H     -617.760     152.868    -564.992
  H     -618.008     151.806    -566.356

 3  4  5  6  7  8  9  10  11  12  13  21  23  27  28  29  30  32 0
 6-311+G(2d,p)
 ****
 34  35 0
 6-311+G(2d,p)
 ****
 1  2  14  15  16  17  18  19  20  22  24  25  26 0
 3-21G
 ****
 31  33  36  37  38  39  40  41  42  43  44  45  46 0
 3-21G
 ****


