%nproc=1
%NoSave
%Mem=1900MB
#P OB98/GEN NMR

erre ene a

0 1
  C      298.094    -105.426     432.081
  O      297.558    -104.146     432.364
  H      298.872    -105.321     431.320
  H      297.310    -106.085     431.700
  H      298.536    -105.858     432.980
  P      296.406    -104.084     433.476
  C      297.244    -102.000     434.801
  O      296.286    -102.542     433.906
  C      296.621    -100.880     435.639
  O      296.235     -99.788     434.746
  C      295.354    -101.299     436.402
  O      295.257    -100.495     437.583
  C      294.259    -100.902     435.422
  O      292.994    -100.899     436.046
  C      294.822     -99.562     434.952
  N      290.470     -98.007     432.758
  C      290.754     -98.370     434.024
  N      291.943     -98.760     434.536
  C      292.898     -98.733     433.593
  C      292.760     -98.376     432.262
  C      291.471     -98.001     431.841
  N      291.176     -97.643     430.554
  N      293.975     -98.480     431.598
  C      294.828     -98.887     432.516
  N      294.222     -99.063     433.734
  O      297.080    -104.783     434.747
  O      295.117    -104.734     433.101
  H      292.314    -100.520     435.451
  H      296.838    -105.726     434.776
  H      289.922     -98.344     434.720
  H      295.887     -99.079     432.359
  H      294.718     -98.784     435.713
  H      294.197    -101.610     434.593
  H      295.344    -102.357     436.675
  H      297.381    -100.475     436.317
  H      298.084    -101.608     434.218
  H      297.610    -102.795     435.466
  H      290.222     -97.404     430.331
  H      291.913     -97.651     429.856
  P      295.360    -101.200     439.023
  C      296.664     -99.124     439.932
  O      295.632    -100.077     440.133
  O      296.782    -101.932     438.936
  O      294.278    -102.185     439.338
  H      296.785    -102.722     439.510
  H      296.701     -98.457     440.768
  H      296.466     -98.567     439.040
  H      297.602     -99.629     439.836

 6  7  8  9  10  11  12  13  14  15  25  28  32  33  34  35 0
 6-311+G(2d,p)
 ****
 36  37  40 0
 6-311+G(2d,p)
 ****
 1  2  3  4  5  16  17  18  19  20  21  22  23  24 0
 3-21G
 ****
 26  27  29  30  31  38  39 41  42  43  44  45  46  47  48 0
 3-21G
 ****


