%nproc=1
%NoSave
%Mem=1900MB
#P OB98/GEN NMR

erre ene a

0 1
  C     -425.410    -524.719     -80.207
  O     -426.577    -524.213     -79.554
  P     -427.940    -524.094     -80.385
  C     -429.662    -525.102     -78.750
  O     -429.159    -523.914     -79.350
  C     -429.032    -525.327     -77.372
  O     -429.249    -524.166     -76.518
  C     -429.631    -526.541     -76.646
  O     -428.632    -527.176     -75.826
  C     -430.649    -525.908     -75.718
  O     -430.980    -526.772     -74.633
  C     -429.922    -524.623     -75.327
  N     -432.044    -522.579     -71.137
  C     -431.124    -523.548     -71.294
  N     -430.588    -524.026     -72.437
  C     -431.090    -523.380     -73.501
  C     -432.031    -522.359     -73.499
  C     -432.526    -521.959     -72.246
  N     -433.488    -520.990     -72.092
  N     -432.306    -521.943     -74.786
  C     -431.585    -522.733     -75.552
  N     -430.807    -523.593     -74.824
  O     -428.154    -525.134     -81.434
  O     -427.829    -522.633     -81.038
  H     -431.299    -527.611     -75.012
  H     -428.150    -522.674     -81.968
  H     -430.767    -524.008     -70.375
  H     -431.597    -522.734     -76.633
  H     -429.161    -524.805     -74.561
  H     -431.570    -525.690     -76.275
  H     -430.075    -527.291     -77.299
  H     -427.951    -525.440     -77.490
  H     -429.458    -525.957     -79.402
  H     -433.862    -520.850     -71.165
  H     -433.956    -520.629     -72.912
  H     -430.754    -525.031     -78.685
  P     -427.888    -528.443     -76.488
  C     -425.566    -527.679     -75.557
  O     -426.564    -528.672     -75.614
  O     -427.695    -528.325     -77.959
  O     -428.853    -529.651     -76.060
  H     -429.081    -529.677     -75.116
  H     -424.822    -527.964     -74.814
  H     -425.994    -526.714     -75.260
  H     -425.075    -527.578     -76.526
  H     -424.593    -524.733     -79.516
  H     -425.165    -524.090     -81.037
  H     -425.599    -525.712     -80.556

 3  4  5  6  7  8  9  10  11  12  22  25  29  30  31  32 0
 6-311+G(2d,p)
 ****
 33  36  37 0
 6-311+G(2d,p)
 ****
 1  2  13  14  15  16  17  18  19  20  21  23  24  26 0
 3-21G
 ****
 27  28  34  35  38  39  40  41  42  43  44  45  46  47  48 0
 3-21G
 ****


