%nproc=1
%NoSave
%Mem=1900MB
#P OB98/GEN NMR

erre ene a

0 1
  C     -290.788    -315.490    -412.722
  O     -289.767    -316.142    -413.477
  P     -288.847    -315.441    -414.578
  C     -288.745    -315.446    -417.209
  O     -289.500    -315.673    -416.020
  C     -289.423    -316.107    -418.425
  O     -289.521    -317.546    -418.173
  C     -290.863    -315.596    -418.658
  O     -291.163    -315.381    -420.038
  C     -291.704    -316.620    -417.912
  O     -293.067    -316.626    -418.336
  C     -290.919    -317.913    -418.137
  N     -291.949    -322.795    -417.018
  C     -291.935    -322.156    -418.259
  N     -292.257    -322.909    -419.326
  N     -291.661    -320.889    -418.409
  C     -291.435    -320.235    -417.249
  C     -291.432    -320.753    -415.968
  C     -291.695    -322.170    -415.812
  O     -291.705    -322.778    -414.743
  N     -291.154    -319.779    -415.042
  C     -291.002    -318.674    -415.741
  N     -291.168    -318.902    -417.097
  O     -287.375    -315.697    -414.458
  O     -289.080    -313.865    -414.315
  H     -293.442    -315.742    -418.152
  H     -288.238    -313.422    -414.550
  H     -292.150    -323.782    -416.969
  H     -290.775    -317.698    -415.346
  H     -291.179    -318.396    -419.071
  H     -291.703    -316.339    -416.851
  H     -292.604    -323.873    -419.264
  H     -290.994    -314.607    -418.195
  H     -292.462    -322.400    -420.191
  H     -288.788    -315.958    -419.303
  H     -287.766    -315.896    -417.038
  H     -288.600    -314.377    -417.376
  P     -292.133    -314.278    -420.687
  C     -294.514    -314.122    -421.608
  O     -293.534    -314.958    -421.027
  O     -291.501    -313.989    -422.132
  O     -292.232    -313.002    -419.895
  H     -291.226    -313.039    -422.193
  H     -295.489    -314.628    -421.549
  H     -294.265    -313.955    -422.658
  H     -294.572    -313.170    -421.089
  H     -291.245    -316.194    -412.059
  H     -291.527    -315.095    -413.388
  H     -290.357    -314.692    -412.154

 3  4  5  6  7  8  9  10  11  12  23  26  30  31 0
 6-311+G(2d,p)
 ****
 33  35  36  37  38 0
 6-311+G(2d,p)
 ****
 1  2  13  14  15  16  17  18  19  20  21  22  24  25 0
 3-21G
 ****
 27  28  29  32  34  39  40  41  42  43  44  45  46  47  48  49 0
 3-21G
 ****


