%nproc=1
%NoSave
%Mem=1900MB
#P OB98/GEN NMR

erre ene a

0 1
  C       17.050     246.263    -214.738
  O       18.349     246.770    -214.489
  H       17.130     245.199    -214.983
  H       16.618     246.785    -215.592
  H       16.413     246.379    -213.858
  P       18.449     248.217    -213.817
  C       18.451     249.936    -215.758
  O       19.228     249.170    -214.864
  C       19.135     250.011    -217.128
  O       20.475     250.558    -216.957
  C       19.276     248.642    -217.835
  O       19.064     248.821    -219.226
  C       20.728     248.265    -217.572
  O       21.240     247.373    -218.568
  C       21.392     249.632    -217.565
  N       26.412     249.960    -218.071
  C       25.396     250.125    -219.007
  N       25.791     250.427    -220.265
  N       24.114     250.020    -218.725
  C       23.889     249.768    -217.420
  C       24.793     249.567    -216.397
  C       26.202     249.664    -216.731
  O       27.139     249.494    -215.942
  N       24.158     249.295    -215.212
  C       22.861     249.317    -215.511
  N       22.650     249.606    -216.850
  O       19.516     248.001    -212.646
  O       17.161     248.772    -213.294
  H       22.219     247.302    -218.422
  H       19.084     248.142    -211.778
  H       27.368     250.043    -218.336
  H       22.060     249.131    -214.817
  H       21.625     250.000    -218.581
  H       20.817     247.785    -216.592
  H       26.757     250.562    -220.550
  H       18.580     247.893    -217.444
  H       25.072     250.588    -220.961
  H       18.583     250.723    -217.754
  H       18.327     250.942    -215.366
  H       17.455     249.472    -215.863
  P       17.574     248.540    -219.777
  C       17.949     246.793    -221.652
  O       17.686     248.138    -221.342
  O       16.909     249.997    -219.800
  O       16.789     247.591    -218.936
  H       16.250     250.069    -219.095
  H       17.996     246.674    -222.714
  H       17.168     246.177    -221.258
  H       18.884     246.503    -221.219

 6  7  8  9  10  11  12  13  14  15  26  29  33  34 0
 6-311+G(2d,p)
 ****
 36  38  39  40  41 0
 6-311+G(2d,p)
 ****
 1  2  3  4  5  16  17  18  19  20  21  22  23  24  25 0
 3-21G
 ****
 27  28  30  31  32  35  37  42  43  44  45  46  47 0
 3-21G
 ****
 48  49 0
 3-21G
 ****


