%nproc=1
%NoSave
%Mem=1900MB
#P OB98/GEN NMR

erre ene a

0 1
  C      184.986     361.756      30.018
  O      183.710     361.910      29.430
  H      184.902     361.940      31.092
  H      185.688     362.478      29.591
  H      185.355     360.739      29.860
  P      183.637     361.738      27.835
  C      184.161     359.787      26.211
  O      184.372     360.350      27.498
  C      185.417     359.062      25.732
  O      186.532     359.974      25.649
  C      185.858     357.911      26.628
  O      185.143     356.726      26.322
  C      187.336     357.811      26.278
  O      187.527     357.092      25.040
  C      187.724     359.288      26.113
  N      191.790     359.946      29.038
  C      191.616     359.160      27.915
  N      192.676     358.417      27.526
  N      190.501     359.098      27.237
  C      189.509     359.848      27.773
  C      189.552     360.663      28.881
  C      190.811     360.765      29.588
  O      191.050     361.505      30.540
  N      188.345     361.276      29.096
  C      187.565     360.805      28.141
  N      188.225     359.930      27.316
  O      184.668     362.840      27.295
  O      182.287     361.921      27.231
  H      188.435     357.242      24.723
  H      184.307     363.230      26.477
  H      192.679     359.978      29.501
  H      186.526     361.072      28.000
  H      188.496     359.423      25.347
  H      187.894     357.267      27.039
  H      193.437     358.203      28.151
  H      185.755     358.173      27.690
  H      192.522     357.789      26.747
  H      185.221     358.702      24.713
  H      183.915     360.590      25.508
  H      183.325     359.081      26.257
  P      184.921     355.651      27.490
  C      183.583     355.719      29.712
  O      184.389     356.434      28.786
  O      186.420     355.243      27.885
  O      184.129     354.453      27.092
  H      186.624     354.356      27.534
  H      183.306     356.366      30.518
  H      184.135     354.887      30.097
  H      182.702     355.366      29.219

 6  7  8  9  10  11  12  13  14  15  26  29  33  34 0
 6-311+G(2d,p)
 ****
 36  38  39  40  41 0
 6-311+G(2d,p)
 ****
 1  2  3  4  5  16  17  18  19  20  21  22  23  24  25 0
 3-21G
 ****
 27  28  30  31  32  35  37  42  43  44  45  46  47 0
 3-21G
 ****
 48  49 0
 3-21G
 ****


