%nproc=1
%NoSave
%Mem=1900MB
#P OB98/GEN NMR

erre ene a

0 1
  C      417.694    -120.395     122.831
  O      418.828    -119.668     122.401
  P      419.983    -119.406     123.493
  C      422.520    -118.804     123.346
  O      421.348    -119.231     122.670
  C      423.718    -118.888     122.393
  O      423.971    -120.261     122.023
  C      423.536    -118.120     121.089
  O      423.816    -116.741     121.279
  C      424.530    -118.828     120.177
  O      425.866    -118.342     120.398
  C      424.393    -120.291     120.633
  N      423.704    -122.759     116.272
  C      424.738    -121.930     116.666
  N      425.756    -121.770     115.795
  N      424.772    -121.310     117.822
  C      423.683    -121.554     118.589
  C      422.589    -122.339     118.298
  C      422.590    -123.056     117.045
  O      421.748    -123.876     116.683
  N      421.669    -122.320     119.315
  C      422.220    -121.544     120.229
  N      423.450    -121.072     119.850
  O      420.133    -120.828     124.206
  O      419.700    -118.302     124.460
  H      425.999    -117.523     119.883
  H      419.642    -120.850     125.047
  H      423.742    -123.221     115.377
  H      421.780    -121.316     121.190
  H      425.350    -120.825     120.597
  H      424.311    -118.667     119.121
  H      425.786    -122.198     114.878
  H      422.518    -118.262     120.706
  H      426.519    -121.167     116.066
  H      424.598    -118.522     122.931
  H      422.697    -119.457     124.203
  H      422.379    -117.776     123.702
  P      423.648    -115.774     120.011
  C      423.513    -113.203     119.658
  O      423.475    -114.281     120.573
  O      422.197    -116.144     119.448
  O      424.697    -115.938     118.964
  H      422.198    -116.090     118.474
  H      422.887    -112.395     120.049
  H      423.144    -113.492     118.671
  H      424.543    -112.846     119.569
  H      417.007    -120.499     122.017
  H      417.218    -119.872     123.634
  H      417.998    -121.364     123.167

 3  4  5  6  7  8  9  10  11  12  23  26  30  31 0
 6-311+G(2d,p)
 ****
 33  35  36  37  38 0
 6-311+G(2d,p)
 ****
 1  2  13  14  15  16  17  18  19  20  21  22  24  25 0
 3-21G
 ****
 27  28  29  32  34  39  40  41  42  43  44  45  46  47  48  49 0
 3-21G
 ****


