%nproc=1
%NoSave
%Mem=1900MB
#P OB98/GEN NMR

erre ene a

0 1
  C     -671.494    -692.944    -580.369
  O     -672.023    -693.878    -581.303
  P     -673.413    -694.589    -580.963
  C     -674.726    -693.159    -582.758
  O     -674.328    -694.441    -582.283
  C     -676.140    -693.220    -583.328
  O     -676.111    -693.983    -584.587
  C     -677.182    -693.913    -582.424
  O     -678.431    -693.221    -582.618
  C     -677.254    -695.318    -582.983
  O     -678.459    -695.965    -582.656
  C     -677.075    -695.022    -584.502
  N     -676.640    -696.204    -585.251
  C     -677.593    -696.884    -586.005
  O     -678.789    -696.565    -586.046
  N     -677.135    -697.973    -586.696
  C     -675.852    -698.491    -586.656
  O     -675.515    -699.476    -587.288
  C     -674.913    -697.751    -585.812
  C     -675.335    -696.660    -585.170
  O     -674.060    -693.556    -579.932
  O     -673.280    -695.993    -580.462
  H     -673.841    -692.631    -580.140
  H     -678.474    -696.835    -583.090
  H     -677.802    -698.464    -587.278
  H     -673.904    -698.132    -585.737
  H     -674.644    -696.101    -584.523
  H     -678.016    -694.648    -584.920
  H     -676.406    -695.899    -582.598
  H     -676.874    -693.867    -581.362
  H     -676.451    -692.195    -583.591
  H     -674.024    -692.833    -583.530
  H     -674.663    -692.432    -581.930
  P     -679.150    -692.583    -581.323
  C     -679.313    -689.983    -581.561
  O     -679.890    -691.255    -581.804
  O     -677.882    -692.023    -580.516
  O     -679.957    -693.548    -580.518
  H     -677.273    -691.510    -581.090
  H     -679.789    -689.244    -582.247
  H     -678.234    -689.991    -581.763
  H     -679.501    -689.673    -580.532
  H     -670.567    -692.558    -580.737
  H     -671.330    -693.432    -579.431
  H     -672.188    -692.140    -580.237

 3  4  5  6  7  8  9  10  11  12  13  24  28  29  30  31  32 0
 6-311+G(2d,p)
 ****
 33  34 0
 6-311+G(2d,p)
 ****
 1  2  14  15  16  17  18  19  20  21  22  23  25  26  27 0
 3-21G
 ****
 35  36  37  38  39  40  41  42  43  44  45 0
 3-21G
 ****


