%nproc=1
%NoSave
%Mem=1900MB
#P OB98/GEN NMR

erre ene a

0 1
  C     -124.376      72.587      46.312
  O     -124.729      72.113      45.026
  H     -123.943      73.585      46.208
  H     -123.637      71.926      46.772
  H     -125.267      72.651      46.942
  P     -125.354      70.638      44.953
  C     -124.380      68.278      45.307
  O     -124.165      69.677      45.450
  C     -123.047      67.529      45.312
  O     -122.542      67.477      43.953
  C     -121.978      68.196      46.180
  O     -121.207      67.189      46.833
  C     -121.108      68.930      45.173
  O     -119.780      69.133      45.648
  C     -121.210      68.016      43.953
  N     -117.648      69.193      40.495
  C     -117.643      68.342      41.542
  N     -118.647      68.076      42.407
  C     -119.755      68.760      42.074
  C     -119.909      69.665      41.038
  C     -118.783      69.881      40.224
  N     -118.770      70.765      39.170
  N     -121.184      70.197      41.046
  C     -121.792      69.612      42.062
  N     -120.963      68.748      42.723
  O     -125.977      70.262      43.650
  O     -126.343      70.642      46.210
  H     -119.312      69.718      45.017
  H     -125.924      71.045      46.993
  H     -116.712      67.808      41.715
  H     -122.819      69.790      42.365
  H     -120.495      67.185      43.987
  H     -121.543      69.914      44.959
  H     -122.403      68.875      46.919
  H     -123.226      66.495      45.624
  H     -124.912      68.072      44.372
  H     -117.924      70.848      38.630
  H     -119.612      71.274      38.942
  H     -125.005      67.946      46.143
  P     -121.109      67.220      48.433
  C     -120.023      68.750      50.207
  O     -119.997      68.297      48.856
  O     -121.007      65.893      49.106
  O     -122.471      67.961      48.846
  H     -122.816      67.557      49.665
  H     -119.237      69.460      50.360
  H     -119.885      67.918      50.865
  H     -120.966      69.213      50.410

 6  7  8  9  10  11  12  13  14  15  25  28  32  33  34  35 0
 6-311+G(2d,p)
 ****
 36  39  40 0
 6-311+G(2d,p)
 ****
 1  2  3  4  5  16  17  18  19  20  21  22  23  24 0
 3-21G
 ****
 26  27  29  30  31  37  38  41  42  43  44  45  46  47 0
 3-21G
 ****
 48 0
 3-21G
 ****


