%nproc=1
%NoSave
%Mem=1900MB
#P OB98/GEN NMR

erre ene a

0 1
  C      203.350      90.808     -70.813
  O      203.759      91.984     -70.148
  H      203.879      89.956     -70.380
  H      203.592      90.867     -71.878
  H      202.275      90.659     -70.684
  P      203.176      93.372     -70.701
  C      205.148      94.877     -71.479
  O      204.191      93.886     -71.831
  C      206.455      94.200     -71.074
  O      206.873      93.281     -72.111
  C      207.622      95.161     -70.890
  O      207.585      95.837     -69.645
  C      208.799      94.208     -70.999
  O      209.086      93.574     -69.743
  C      208.311      93.186     -72.040
  N      208.941      93.397     -73.341
  C      210.179      92.784     -73.520
  O      210.726      92.101     -72.656
  N      210.789      93.013     -74.722
  C      210.320      93.818     -75.717
  O      210.947      94.025     -76.750
  C      209.017      94.455     -75.468
  C      208.397      94.221     -74.306
  O      203.417      94.381     -69.483
  O      201.742      93.329     -71.119
  H      202.568      94.576     -69.044
  H      209.733      92.868     -69.940
  H      211.687      92.576     -74.871
  H      208.615      95.102     -76.237
  H      207.440      94.687     -74.093
  H      208.541      92.165     -71.713
  H      209.700      94.734     -71.306
  H      207.661      95.872     -71.725
  H      206.282      93.625     -70.154
  H      204.776      95.464     -70.633
  H      205.301      95.545     -72.330
  P      208.152      97.338     -69.593
  C      210.595      97.404     -68.615
  O      209.745      97.206     -69.733
  O      207.906      97.690     -68.053
  O      207.488      98.250     -70.567
  H      207.912      96.893     -67.493
  H      211.614      97.272     -68.914
  H      210.352      96.694     -67.852
  H      210.460      98.395     -68.235

 6  7  8  9  10  11  12  13  14  15  16  27  31  32  33  34  35 0
 6-311+G(2d,p)
 ****
 36  37 0
 6-311+G(2d,p)
 ****
 1  2  3  4  5  17  18  19  20  21  22  23  24  25 0
 3-21G
 ****
 26  28  29  30  38  39  40  41  42  43  44  45 0
 3-21G
 ****


