%nproc=1
%NoSave
%Mem=1900MB
#P OB98/GEN NMR

erre ene a

0 1
  C     -963.344    -863.706    -309.618
  O     -962.892    -862.361    -309.599
  H     -962.964    -864.194    -310.521
  H     -964.438    -863.750    -309.647
  H     -962.970    -864.243    -308.743
  P     -963.454    -861.389    -308.451
  C     -960.990    -861.091    -307.719
  O     -962.326    -861.378    -307.317
  C     -960.639    -859.643    -307.379
  O     -960.803    -859.411    -305.970
  C     -959.183    -859.298    -307.697
  O     -958.994    -859.112    -309.082
  C     -959.004    -858.057    -306.837
  O     -959.556    -856.894    -307.467
  C     -959.806    -858.429    -305.569
  N     -958.964    -858.953    -304.487
  C     -958.681    -858.069    -303.460
  O     -959.133    -856.920    -303.479
  N     -957.881    -858.492    -302.421
  C     -957.403    -859.701    -302.424
  N     -956.617    -860.065    -301.385
  C     -957.690    -860.669    -303.507
  C     -958.468    -860.243    -304.493
  O     -964.842    -861.669    -307.953
  O     -963.325    -859.936    -309.106
  H     -959.345    -856.149    -306.888
  H     -964.143    -859.700    -309.589
  H     -957.286    -861.676    -303.470
  H     -958.721    -860.895    -305.327
  H     -960.360    -857.565    -305.186
  H     -957.947    -857.859    -306.634
  H     -958.516    -860.075    -307.312
  H     -961.318    -858.981    -307.925
  H     -956.433    -859.361    -300.689
  H     -960.928    -861.258    -308.809
  H     -956.271    -861.009    -301.233
  H     -960.276    -861.770    -307.240
  P     -957.595    -859.480    -309.772
  C     -958.665    -861.392    -311.142
  O     -957.708    -861.049    -310.155
  O     -956.385    -859.106    -308.990
  O     -957.685    -858.775    -311.205
  H     -957.563    -857.789    -311.129
  H     -958.645    -862.449    -311.306
  H     -958.433    -860.884    -312.055
  H     -959.640    -861.102    -310.810

 6  7  8  9  10  11  12  13  14  15  16  26  30  31  32  33  35 0
 6-311+G(2d,p)
 ****
 37  38 0
 6-311+G(2d,p)
 ****
 1  2  3  4  5  17  18  19  20  21  22  23  24  25 0
 3-21G
 ****
 27  28  29  34  36  39  40  41  42  43  44  45  46 0
 3-21G
 ****


