%nproc=1
%NoSave
%Mem=1900MB
#P OB98/GEN NMR

erre ene a

0 1
  C      819.781      96.650     201.006
  O      820.901      96.208     200.252
  P      820.620      95.563     198.808
  C      821.549      93.268     199.592
  O      821.651      94.346     198.665
  C      822.812      92.414     199.571
  O      822.952      91.766     198.283
  C      824.107      93.200     199.774
  O      824.364      93.453     201.149
  C      825.130      92.217     199.213
  O      825.406      91.197     200.190
  C      824.372      91.627     198.022
  N      827.999      92.302     194.472
  C      828.004      91.649     195.655
  N      827.007      91.525     196.552
  C      825.914      92.194     196.131
  C      825.766      92.930     194.968
  C      826.868      92.962     194.107
  N      826.853      93.605     192.883
  N      824.504      93.469     194.892
  C      823.886      93.061     195.982
  N      824.695      92.277     196.765
  O      821.207      96.673     197.806
  O      819.185      95.256     198.521
  H      825.656      91.659     201.018
  H      820.789      96.588     196.930
  H      828.942      91.161     195.918
  H      822.863      93.294     196.246
  H      824.573      90.553     197.895
  H      826.078      92.693     198.969
  H      824.110      94.119     199.178
  H      822.713      91.638     200.331
  H      820.692      92.643     199.315
  H      827.611      93.425     192.243
  H      825.953      93.920     192.524
  H      821.378      93.683     200.589
  P      824.543      94.994     201.570
  C      825.759      93.885     203.595
  O      824.958      94.954     203.123
  O      823.039      95.534     201.590
  O      825.430      95.774     200.673
  H      823.031      96.506     201.443
  H      826.197      94.177     204.557
  H      826.574      93.667     202.894
  H      825.143      92.986     203.735
  H      820.116      97.054     201.939
  H      819.126      95.824     201.190
  H      819.257      97.405     200.458

 3  4  5  6  7  8  9  10  11  12  22  25  29  30  31  32 0
 6-311+G(2d,p)
 ****
 33  36  37 0
 6-311+G(2d,p)
 ****
 1  2  13  14  15  16  17  18  19  20  21  23  24  26 0
 3-21G
 ****
 27  28  34  35  38  39  40  41  42  43  44  45  46  47  48 0
 3-21G
 ****


