%nproc=1
%NoSave
%Mem=1900MB
#P OB98/GEN NMR

erre ene a

0 1
  C      277.255    -273.133    -276.720
  O      276.195    -273.432    -277.608
  H      277.776    -274.059    -276.466
  H      276.860    -272.687    -275.804
  H      277.968    -272.444    -277.190
  P      275.437    -272.200    -278.296
  C      275.965    -272.801    -280.775
  O      274.978    -272.699    -279.755
  C      275.595    -273.920    -281.751
  O      276.180    -275.169    -281.263
  C      274.083    -274.153    -281.894
  O      273.809    -274.514    -283.256
  C      273.827    -275.355    -281.003
  O      272.658    -276.092    -281.341
  C      275.125    -276.147    -281.217
  N      275.364    -277.130    -280.154
  C      274.653    -278.327    -280.216
  O      273.903    -278.655    -281.137
  N      274.831    -279.173    -279.147
  C      275.605    -278.935    -278.046
  O      275.705    -279.725    -277.108
  C      276.324    -277.651    -278.035
  C      276.171    -276.820    -279.069
  O      276.626    -271.177    -278.613
  O      274.349    -271.574    -277.485
  H      276.773    -270.573    -277.858
  H      271.896    -275.473    -281.280
  H      274.320    -280.045    -279.175
  H      276.940    -277.426    -277.175
  H      276.673    -275.852    -279.086
  H      275.105    -276.661    -282.186
  H      273.739    -275.034    -279.956
  H      273.468    -273.292    -281.611
  H      276.055    -273.708    -282.722
  H      276.932    -273.022    -280.321
  H      276.036    -271.843    -281.306
  P      272.702    -273.656    -284.041
  C      273.689    -274.052    -286.446
  O      272.632    -274.287    -285.516
  O      273.472    -272.261    -284.241
  O      271.401    -273.566    -283.309
  H      274.432    -272.381    -284.389
  H      273.469    -274.548    -287.368
  H      274.606    -274.432    -286.047
  H      273.784    -273.001    -286.620

 6  7  8  9  10  11  12  13  14  15  16  27  31  32  33  34  35 0
 6-311+G(2d,p)
 ****
 36  37 0
 6-311+G(2d,p)
 ****
 1  2  3  4  5  17  18  19  20  21  22  23  24  25 0
 3-21G
 ****
 26  28  29  30  38  39  40  41  42  43  44  45 0
 3-21G
 ****


