%nproc=1
%NoSave
%Mem=1900MB
#P OB98/GEN NMR

erre ene a

0 1
  C     -893.190    -453.810     266.789
  O     -893.570    -454.063     265.428
  P     -894.500    -455.328     265.116
  C     -895.000    -453.884     263.029
  O     -895.010    -455.195     263.616
  C     -894.460    -453.920     261.600
  O     -893.020    -453.996     261.575
  C     -894.950    -455.106     260.798
  O     -896.320    -454.960     260.425
  C     -893.970    -455.133     259.654
  O     -894.330    -454.205     258.628
  C     -892.650    -454.685     260.331
  N     -891.720    -455.762     260.600
  C     -891.190    -456.388     259.483
  O     -891.530    -456.047     258.333
  N     -890.290    -457.412     259.666
  C     -889.940    -457.771     260.867
  N     -889.040    -458.790     260.986
  C     -890.500    -457.122     262.072
  C     -891.370    -456.143     261.870
  O     -895.560    -455.632     266.127
  O     -893.420    -456.532     265.015
  H     -893.670    -454.326     257.906
  H     -893.860    -457.353     265.283
  H     -890.160    -457.462     263.056
  H     -891.810    -455.626     262.714
  H     -892.140    -453.942     259.720
  H     -893.900    -456.124     259.181
  H     -894.840    -456.037     261.415
  H     -894.760    -452.996     261.110
  H     -888.690    -459.206     260.130
  H     -894.360    -453.229     263.647
  H     -888.670    -459.089     261.864
  H     -896.010    -453.483     263.072
  P     -897.360    -456.083     260.899
  C     -899.090    -454.173     261.329
  O     -898.830    -455.454     260.756
  O     -897.140    -456.122     262.488
  O     -897.170    -457.426     260.288
  H     -897.260    -457.034     262.810
  H     -900.000    -453.771     260.890
  H     -898.270    -453.485     261.120
  H     -899.230    -454.280     262.413
  H     -892.574    -452.936     266.831
  H     -892.646    -454.649     267.169
  H     -894.068    -453.656     267.382

 3  4  5  6  7  8  9  10  11  12  13  23  27  28  29  30  32 0
 6-311+G(2d,p)
 ****
 34  35 0
 6-311+G(2d,p)
 ****
 1  2  14  15  16  17  18  19  20  21  22  24  25  26 0
 3-21G
 ****
 31  33  36  37  38  39  40  41  42  43  44  45  46 0
 3-21G
 ****


