%nproc=1
%NoSave
%Mem=1900MB
#P OB98/GEN NMR

erre ene a

0 1
  C     -294.184    -890.520     383.779
  O     -293.114    -891.480     383.624
  P     -292.647    -892.290     384.920
  C     -293.034    -894.530     383.631
  O     -293.233    -893.780     384.831
  C     -293.380    -896.000     383.853
  O     -292.597    -896.550     384.935
  C     -294.823    -896.230     384.260
  O     -295.687    -896.140     383.124
  C     -294.770    -897.600     384.892
  O     -294.996    -898.640     383.917
  C     -293.324    -897.680     385.452
  N     -293.287    -897.710     386.906
  C     -293.258    -898.990     387.482
  O     -293.290    -900.000     386.761
  N     -293.223    -899.090     388.852
  C     -293.233    -898.020     389.578
  N     -293.202    -898.170     390.928
  C     -293.301    -896.650     389.008
  C     -293.320    -896.570     387.663
  O     -293.518    -891.620     386.098
  O     -291.184    -892.200     385.202
  H     -294.353    -898.460     383.196
  H     -293.010    -891.620     386.932
  H     -293.318    -895.770     389.642
  H     -293.365    -895.610     387.150
  H     -292.815    -898.580     385.070
  H     -295.541    -897.740     385.651
  H     -295.115    -895.480     385.030
  H     -293.165    -896.560     382.934
  H     -293.162    -899.110     391.281
  H     -292.009    -894.430     383.296
  H     -293.231    -897.390     391.578
  H     -293.655    -894.080     382.838
  P     -297.125    -895.450     383.333
  C     -296.287    -893.790     381.585
  O     -296.944    -893.950     382.838
  O     -297.178    -895.270     384.940
  O     -298.303    -896.220     382.822
  H     -298.059    -894.950     385.206
  H     -296.412    -892.730     381.265
  H     -296.715    -894.450     380.827
  H     -295.210    -893.970     381.708
  H     -294.388    -890.058     382.836
  H     -293.893    -889.772     384.487
  H     -295.063    -891.019     384.129

 3  4  5  6  7  8  9  10  11  12  13  21  23  27  28  29  30  32 0
 6-311+G(2d,p)
 ****
 34  35 0
 6-311+G(2d,p)
 ****
 1  2  14  15  16  17  18  19  20  22  24  25  26 0
 3-21G
 ****
 31  33  36  37  38  39  40  41  42  43  44  45  46 0
 3-21G
 ****


