%nproc=1
%NoSave
%Mem=1900MB
#P OB98/GEN NMR

erre ene a

0 1
  C     -333.836    -381.357     761.906
  O     -332.437    -381.307     762.082
  P     -331.622    -382.621     762.523
  C     -330.185    -382.832     760.390
  O     -331.244    -383.404     761.169
  C     -330.453    -383.055     758.912
  O     -331.640    -382.334     758.474
  C     -329.344    -382.531     757.998
  O     -328.089    -383.173     758.061
  C     -330.057    -382.522     756.649
  O     -330.060    -383.833     756.058
  C     -331.488    -382.095     757.047
  N     -331.768    -380.706     756.692
  C     -332.622    -380.519     755.612
  O     -333.119    -381.440     754.970
  N     -332.857    -379.210     755.262
  C     -332.305    -378.111     755.834
  O     -332.517    -376.980     755.441
  C     -331.392    -378.376     756.968
  C     -331.167    -379.640     757.337
  O     -332.296    -383.464     763.561
  O     -330.198    -382.025     762.985
  H     -329.144    -384.176     756.094
  H     -329.721    -381.551     762.296
  H     -333.462    -379.050     754.471
  H     -330.944    -377.517     757.457
  H     -330.496    -379.858     758.179
  H     -332.232    -382.735     756.552
  H     -329.564    -381.858     755.938
  H     -329.156    -381.482     758.252
  H     -330.643    -384.119     758.739
  H     -329.246    -383.328     760.668
  H     -330.083    -381.766     760.632
  P     -326.775    -382.486     758.656
  C     -326.212    -383.847     760.796
  O     -326.780    -382.675     760.250
  O     -326.424    -381.132     758.119
  O     -325.639    -383.536     758.205
  H     -324.804    -383.052     758.059
  H     -326.337    -383.825     761.888
  H     -325.136    -383.889     760.580
  H     -326.701    -384.738     760.402
  H     -334.194    -380.392     761.615
  H     -334.301    -381.647     762.825
  H     -334.074    -382.070     761.145

 3  4  5  6  7  8  9  10  11  12  13  23  28  29  30  31  32 0
 6-311+G(2d,p)
 ****
 33  34 0
 6-311+G(2d,p)
 ****
 1  2  14  15  16  17  18  19  20  21  22  24  25  26  27 0
 3-21G
 ****
 35  36  37  38  39  40  41  42  43  44  45 0
 3-21G
 ****


