%nproc=1
%NoSave
%Mem=1900MB
#P OB98/GEN NMR

erre ene a

0 1
  C      -37.107    -212.521    -513.254
  O      -38.198    -211.789    -513.772
  H      -36.558    -211.904    -512.540
  H      -37.489    -213.404    -512.734
  H      -36.439    -212.846    -514.058
  P      -37.868    -210.624    -514.824
  C      -38.962    -212.022    -516.720
  O      -37.809    -211.324    -516.270
  C      -38.643    -212.824    -517.980
  O      -37.481    -213.663    -517.714
  C      -39.782    -213.739    -518.453
  O      -39.820    -213.715    -519.883
  C      -39.338    -215.116    -517.993
  O      -39.899    -216.165    -518.773
  C      -37.823    -214.998    -518.123
  N      -35.300    -219.410    -518.269
  C      -35.610    -218.517    -519.232
  N      -36.242    -217.334    -519.097
  C      -36.495    -217.075    -517.803
  C      -36.233    -217.883    -516.711
  C      -35.618    -219.116    -516.986
  N      -35.359    -220.062    -516.022
  N      -36.696    -217.292    -515.552
  C      -37.252    -216.161    -515.942
  N      -37.158    -215.987    -517.295
  O      -36.333    -210.296    -514.502
  O      -38.729    -209.410    -514.734
  H      -39.416    -216.994    -518.583
  H      -36.283    -209.626    -513.795
  H      -35.327    -218.794    -520.243
  H      -37.758    -215.456    -515.299
  H      -37.473    -215.143    -519.156
  H      -39.633    -215.267    -516.948
  H      -40.766    -213.463    -518.053
  H      -38.355    -212.124    -518.773
  H      -39.748    -211.298    -516.950
  H      -35.014    -220.962    -516.327
  H      -35.688    -219.906    -515.081
  H      -39.314    -212.686    -515.925
  P      -40.058    -212.297    -520.589
  C      -37.695    -212.261    -521.689
  O      -38.636    -211.606    -520.841
  O      -40.701    -211.408    -519.426
  O      -40.950    -212.359    -521.789
  H      -41.332    -210.765    -519.798
  H      -36.803    -211.674    -521.753
  H      -38.116    -212.378    -522.666
  H      -37.460    -213.223    -521.285

 6  7  8  9  10  11  12  13  14  15  25  28  32  33  34  35 0
 6-311+G(2d,p)
 ****
 36  39  40 0
 6-311+G(2d,p)
 ****
 1  2  3  4  5  16  17  18  19  20  21  22  23  24 0
 3-21G
 ****
 26  27  29  30  31  37  38  41  42  43  44  45  46  47 0
 3-21G
 ****
 48 0
 3-21G
 ****


