%nproc=1
%NoSave
%Mem=1900MB
#P OB98/GEN NMR

erre ene a

0 1
  C     -204.542    -459.161    -139.580
  O     -205.425    -458.732    -140.617
  P     -204.751    -458.130    -141.944
  C     -206.493    -459.276    -143.478
  O     -205.871    -458.060    -143.092
  C     -207.656    -459.631    -142.546
  O     -208.622    -458.543    -142.484
  C     -208.425    -460.884    -142.971
  O     -208.879    -461.543    -141.783
  C     -209.627    -460.315    -143.701
  O     -210.686    -461.267    -143.787
  C     -209.908    -459.084    -142.840
  N     -214.515    -458.099    -144.808
  C     -214.020    -459.178    -144.162
  N     -212.772    -459.370    -143.689
  C     -212.013    -458.279    -143.900
  C     -212.376    -457.113    -144.550
  C     -213.696    -457.043    -145.021
  N     -214.198    -455.956    -145.702
  N     -211.310    -456.240    -144.614
  C     -210.321    -456.874    -144.015
  N     -210.705    -458.094    -143.541
  O     -203.785    -459.309    -142.430
  O     -203.993    -456.864    -141.715
  H     -210.840    -461.636    -142.893
  H     -202.854    -459.066    -142.269
  H     -214.719    -459.999    -144.012
  H     -209.313    -456.498    -143.906
  H     -210.446    -459.334    -141.916
  H     -209.343    -460.022    -144.718
  H     -207.854    -461.585    -143.590
  H     -207.255    -459.773    -141.536
  H     -205.765    -460.091    -143.467
  H     -215.148    -455.996    -146.032
  H     -213.586    -455.182    -145.907
  H     -206.831    -459.191    -144.519
  P     -208.210    -462.962    -141.454
  C     -208.632    -463.189    -138.904
  O     -209.022    -463.563    -140.211
  O     -206.787    -462.577    -140.830
  O     -208.077    -463.863    -142.637
  H     -206.152    -463.303    -140.964
  H     -209.530    -463.025    -138.303
  H     -208.036    -462.269    -138.898
  H     -208.047    -463.996    -138.459
  H     -205.114    -459.538    -138.758
  H     -203.949    -458.333    -139.252
  H     -203.902    -459.933    -139.953

 3  4  5  6  7  8  9  10  11  12  22  25  29  30  31  32 0
 6-311+G(2d,p)
 ****
 33  36  37 0
 6-311+G(2d,p)
 ****
 1  2  13  14  15  16  17  18  19  20  21  23  24  26 0
 3-21G
 ****
 27  28  34  35  38  39  40  41  42  43  44  45  46  47  48 0
 3-21G
 ****


