%nproc=1
%NoSave
%Mem=1900MB
#P OB98/GEN NMR

erre ene a

0 1
  C      267.376     -10.642     -43.748
  O      266.428     -11.327     -44.535
  P      265.313     -10.520     -45.358
  C      263.637     -10.607     -43.406
  O      264.404      -9.769     -44.266
  C      262.910      -9.761     -42.364
  O      263.840      -8.924     -41.629
  C      261.906      -8.779     -42.949
  O      260.771      -9.313     -43.591
  C      261.663      -7.857     -41.767
  O      260.728      -8.422     -40.850
  C      263.074      -7.795     -41.130
  N      263.743      -6.526     -41.404
  C      263.117      -5.389     -40.905
  O      262.066      -5.415     -40.267
  N      263.727      -4.195     -41.189
  C      264.850      -4.031     -41.949
  O      265.317      -2.929     -42.203
  C      265.457      -5.266     -42.462
  C      264.887      -6.440     -42.174
  O      264.548     -11.327     -46.351
  O      266.138      -9.305     -46.002
  H      260.654      -7.809     -40.092
  H      266.572      -8.721     -45.356
  H      263.283      -3.359     -40.850
  H      266.357      -5.172     -43.056
  H      265.318      -7.366     -42.544
  H      263.009      -7.920     -40.041
  H      261.263      -6.888     -42.080
  H      262.421      -8.183     -43.721
  H      262.439     -10.435     -41.641
  H      264.310     -11.299     -42.894
  H      262.934     -11.197     -44.001
  P      260.184      -8.748     -44.973
  C      258.211      -7.552     -43.789
  O      259.323      -7.433     -44.650
  O      259.593      -9.747     -45.909
  O      261.503      -8.119     -45.644
  H      261.429      -8.190     -46.616
  H      257.721      -6.576     -43.720
  H      258.534      -7.853     -42.789
  H      257.494      -8.278     -44.186
  H      268.029     -11.349     -43.281
  H      266.871     -10.072     -42.996
  H      267.948      -9.985     -44.370

 3  4  5  6  7  8  9  10  11  12  13  23  28  29  30  31  32 0
 6-311+G(2d,p)
 ****
 33  34 0
 6-311+G(2d,p)
 ****
 1  2  14  15  16  17  18  19  20  21  22  24  25  26  27 0
 3-21G
 ****
 35  36  37  38  39  40  41  42  43  44  45 0
 3-21G
 ****


