%nproc=1
%NoSave
%Mem=1900MB
#P OB98/GEN NMR

erre ene a

0 1
  C       59.991     -86.234      41.698
  O       60.611     -86.198      40.427
  H       59.767     -87.268      41.979
  H       60.678     -85.811      42.435
  H       59.072     -85.642      41.690
  P       59.747     -86.752      39.193
  C       60.307     -89.217      39.778
  O       59.294     -88.238      39.595
  C       59.815     -90.578      39.295
  O       60.896     -91.533      39.312
  C       58.710     -91.195      40.146
  O       57.437     -90.642      39.842
  C       58.801     -92.652      39.716
  O       58.144     -92.826      38.447
  C       60.318     -92.844      39.554
  N       60.137     -96.675      42.941
  C       59.401     -96.409      41.841
  N       59.521     -95.379      40.977
  C       60.543     -94.581      41.332
  C       61.396     -94.735      42.412
  C       61.161     -95.839      43.248
  N       61.879     -96.062      44.414
  N       62.315     -93.704      42.461
  C       62.009     -92.934      41.436
  N       60.950     -93.426      40.721
  O       60.858     -86.982      38.058
  O       58.656     -85.847      38.723
  H       58.056     -93.788      38.307
  H       60.871     -86.211      37.462
  H       58.603     -97.113      41.627
  H       62.519     -92.015      41.179
  H       60.565     -93.469      38.691
  H       58.328     -93.340      40.425
  H       58.937     -91.122      41.216
  H       59.487     -90.468      38.252
  H       60.564     -89.283      40.841
  H       61.351     -96.557      45.128
  H       62.434     -95.273      44.720
  H       61.194     -88.913      39.215
  P       56.625     -89.934      41.031
  C       54.879     -91.831      41.257
  O       55.937     -91.114      41.879
  O       55.398     -89.250      40.266
  O       57.396     -88.935      41.822
  H       55.381     -88.293      40.460
  H       54.515     -92.582      41.927
  H       55.240     -92.295      40.363
  H       54.086     -91.156      41.013

 6  7  8  9  10  11  12  13  14  15  25  28  32  33  34  35 0
 6-311+G(2d,p)
 ****
 36  39  40 0
 6-311+G(2d,p)
 ****
 1  2  3  4  5  16  17  18  19  20  21  22  23  24 0
 3-21G
 ****
 26  27  29  30  31  37  38  41  42  43  44  45  46  47  48 0
 3-21G
 ****


