%nproc=1
%NoSave
%Mem=1900MB
#P OB98/GEN NMR

erre ene a

0 1
  C     -308.211    -104.567     152.001
  O     -308.424    -105.876     152.487
  H     -307.275    -104.522     151.437
  H     -309.034    -104.300     151.335
  H     -308.181    -103.854     152.830
  P     -307.323    -106.462     153.500
  C     -305.535    -106.470     151.611
  O     -305.901    -106.009     152.906
  C     -304.145    -107.094     151.664
  O     -303.181    -106.125     152.128
  C     -304.025    -108.282     152.613
  O     -304.501    -109.483     152.031
  C     -302.519    -108.325     152.813
  O     -301.891    -108.922     151.662
  C     -302.172    -106.834     152.898
  N     -300.507    -107.644     157.669
  C     -300.367    -108.359     156.532
  N     -300.846    -108.076     155.303
  C     -301.531    -106.920     155.311
  C     -301.762    -106.089     156.394
  C     -301.206    -106.486     157.624
  N     -301.359    -105.769     158.789
  N     -302.541    -105.008     156.024
  C     -302.743    -105.173     154.731
  N     -302.160    -106.319     154.256
  O     -307.349    -108.037     153.214
  O     -307.530    -106.138     154.942
  H     -302.308    -109.794     151.537
  H     -306.973    -108.521     153.972
  H     -299.799    -109.282     156.623
  H     -303.301    -104.493     154.099
  H     -301.196    -106.604     152.456
  H     -302.220    -108.917     153.682
  H     -304.510    -108.079     153.576
  H     -303.862    -107.383     150.643
  H     -305.527    -105.623     150.918
  H     -301.082    -106.228     159.642
  H     -302.000    -104.988     158.792
  H     -306.270    -107.205     151.270
  P     -305.011    -110.632     153.029
  C     -302.752    -111.913     152.850
  O     -303.691    -111.252     153.695
  O     -305.504    -111.785     152.033
  O     -306.082    -110.208     153.980
  H     -306.189    -112.339     152.457
  H     -301.932    -112.269     153.438
  H     -302.391    -111.227     152.113
  H     -303.228    -112.739     152.365

 6  7  8  9  10  11  12  13  14  15  25  28  32  33  34  35 0
 6-311+G(2d,p)
 ****
 36  39  40 0
 6-311+G(2d,p)
 ****
 1  2  3  4  5  16  17  18  19  20  21  22  23  24 0
 3-21G
 ****
 26  27  29  30  31  37  38  41  42  43  44  45  46  47 0
 3-21G
 ****
 48 0
 3-21G
 ****


