%nproc=1
%NoSave
%Mem=1900MB
#P OB98/GEN NMR

erre ene a

0 1
  C     -122.645     421.475    -698.960
  O     -122.493     420.250    -699.644
  H     -122.571     421.313    -697.880
  H     -121.845     422.155    -699.268
  H     -123.609     421.929    -699.203
  P     -123.549     419.092    -699.302
  C     -123.704     418.370    -701.787
  O     -123.415     417.975    -700.453
  C     -122.626     417.845    -702.732
  O     -121.437     418.660    -702.567
  C     -122.232     416.378    -702.498
  O     -122.434     415.615    -703.695
  C     -120.744     416.422    -702.204
  O     -120.014     415.359    -702.819
  C     -120.317     417.784    -702.746
  N     -115.222     417.735    -702.663
  C     -116.099     417.477    -703.649
  N     -117.444     417.611    -703.640
  C     -117.866     418.092    -702.454
  C     -117.084     418.421    -701.362
  C     -115.700     418.203    -701.485
  N     -114.813     418.415    -700.452
  N     -117.874     418.869    -700.319
  C     -119.111     418.774    -700.762
  N     -119.153     418.286    -702.047
  O     -124.965     419.782    -699.610
  O     -123.488     418.569    -697.909
  H     -120.416     414.529    -702.507
  H     -125.574     419.627    -698.868
  H     -115.673     417.103    -704.580
  H     -120.008     418.987    -700.193
  H     -120.084     417.744    -703.819
  H     -120.592     416.363    -701.119
  H     -122.781     415.919    -701.667
  H     -122.972     417.987    -703.763
  H     -123.728     419.464    -701.847
  H     -113.858     418.125    -700.595
  H     -115.181     418.664    -699.548
  H     -124.691     417.984    -702.069
  P     -123.913     415.026    -703.936
  C     -123.430     415.621    -706.423
  O     -124.067     414.739    -705.506
  O     -124.850     416.305    -703.699
  O     -124.269     413.894    -703.029
  H     -125.735     416.024    -703.401
  H     -123.626     415.297    -707.424
  H     -122.375     415.617    -706.247
  H     -123.811     416.612    -706.288

 6  7  8  9  10  11  12  13  14  15  25  28  32  33  34  35 0
 6-311+G(2d,p)
 ****
 36  39  40 0
 6-311+G(2d,p)
 ****
 1  2  3  4  5  16  17  18  19  20  21  22  23  24 0
 3-21G
 ****
 26  27  29  30  31  37  38  41  42  43  44  45  46  47  48 0
 3-21G
 ****


