%nproc=1
%NoSave
%Mem=1900MB
#P OB98/GEN NMR

erre ene a

0 1
  C     -305.681     -97.032     325.152
  O     -306.830     -97.800     325.446
  H     -304.984     -97.645     324.575
  H     -305.184     -96.708     326.071
  H     -305.956     -96.160     324.551
  P     -307.942     -97.187     326.421
  C     -308.041     -99.283     327.912
  O     -308.755     -98.433     327.026
  C     -308.991     -99.931     328.922
  O     -309.594     -98.885     329.732
  C     -310.122    -100.737     328.270
  O     -310.375    -101.893     329.076
  C     -311.294     -99.779     328.334
  O     -312.532    -100.464     328.285
  C     -311.024     -99.017     329.636
  N     -311.697     -97.719     329.640
  C     -312.917     -97.650     330.321
  O     -313.367     -98.649     330.888
  N     -313.634     -96.482     330.286
  C     -313.199     -95.481     329.586
  N     -313.973     -94.363     329.564
  C     -311.930     -95.515     328.830
  C     -311.237     -96.652     328.902
  O     -308.796     -96.104     325.847
  O     -307.096     -96.663     327.676
  H     -313.263     -99.819     328.409
  H     -306.838     -95.730     327.540
  H     -311.612     -94.657     328.259
  H     -310.299     -96.775     328.371
  H     -311.369     -99.594     330.504
  H     -311.257     -99.092     327.478
  H     -309.894    -101.042     327.244
  H     -308.405    -100.559     329.603
  H     -314.849     -94.395     330.079
  H     -307.304     -98.672     328.445
  H     -313.761     -93.540     329.025
  H     -307.515    -100.057     327.346
  P     -309.607    -103.273     328.786
  C     -311.768    -104.594     328.424
  O     -310.568    -104.500     329.183
  O     -308.228    -103.354     329.355
  O     -309.558    -103.354     327.183
  H     -308.757    -103.842     326.911
  H     -312.337    -105.436     328.759
  H     -311.527    -104.716     327.389
  H     -312.343    -103.701     328.553

 6  7  8  9  10  11  12  13  14  15  16  26  30  31  32  33  35 0
 6-311+G(2d,p)
 ****
 37  38 0
 6-311+G(2d,p)
 ****
 1  2  3  4  5  17  18  19  20  21  22  23  24  25 0
 3-21G
 ****
 27  28  29  34  36  39  40  41  42  43  44  45  46 0
 3-21G
 ****


