%nproc=1
%NoSave
%Mem=1900MB
#P OB98/GEN NMR

erre ene a

0 1
  C      129.073    -431.970     148.684
  O      129.154    -430.930     147.697
  P      129.568    -431.196     146.168
  C      127.322    -431.800     145.025
  O      128.331    -430.799     145.227
  C      126.008    -431.161     144.591
  O      125.414    -430.421     145.685
  C      126.115    -430.139     143.463
  O      126.362    -430.740     142.204
  C      124.768    -429.433     143.565
  O      123.741    -430.144     142.866
  C      124.490    -429.483     145.084
  N      124.599    -428.177     145.728
  C      123.393    -427.598     146.171
  O      122.321    -428.151     145.951
  N      123.444    -426.411     146.843
  C      124.588    -425.781     146.962
  N      124.591    -424.610     147.650
  C      125.854    -426.284     146.374
  C      125.792    -427.473     145.796
  O      130.106    -432.567     145.916
  O      130.675    -430.079     145.836
  H      131.251    -430.403     145.120
  H      123.719    -431.042     143.237
  H      126.769    -425.713     146.473
  H      126.665    -427.937     145.355
  H      123.491    -429.891     145.281
  H      124.799    -428.413     143.151
  H      126.917    -429.434     143.698
  H      125.314    -431.958     144.304
  H      123.711    -424.296     148.037
  H      127.166    -432.336     145.971
  H      125.421    -424.063     147.815
  H      127.681    -432.522     144.286
  P      127.635    -430.221     141.383
  C      129.439    -431.813     142.373
  O      128.668    -431.450     141.253
  O      128.363    -429.225     142.397
  O      127.302    -429.542     140.088
  H      128.702    -428.450     141.909
  H      129.692    -432.866     142.304
  H      128.905    -431.625     143.310
  H      130.369    -431.227     142.370
  H      128.779    -431.549     149.623
  H      130.029    -432.439     148.787
  H      128.350    -432.697     148.378

 3  4  5  6  7  8  9  10  11  12  13  24  27  28  29  30  32 0
 6-311+G(2d,p)
 ****
 34  35 0
 6-311+G(2d,p)
 ****
 1  2  14  15  16  17  18  19  20  21  22  23  25  26 0
 3-21G
 ****
 31  33  36  37  38  39  40  41  42  43  44  45  46 0
 3-21G
 ****


