%nproc=1
%NoSave
%Mem=1900MB
#P OB98/GEN NMR

erre ene a

0 1
  C     -323.516    1102.914     652.951
  O     -322.838    1103.083     651.722
  H     -323.547    1103.873     653.471
  H     -322.982    1102.191     653.580
  H     -324.545    1102.572     652.787
  P     -322.812    1101.871     650.683
  C     -320.700    1102.815     649.527
  O     -322.057    1102.402     649.372
  C     -320.142    1103.336     648.194
  O     -319.920    1102.198     647.306
  C     -321.071    1104.311     647.457
  O     -320.237    1105.211     646.700
  C     -321.824    1103.357     646.538
  O     -322.554    1104.026     645.546
  C     -320.649    1102.475     646.087
  N     -321.014    1101.242     645.420
  C     -321.585    1101.325     644.151
  O     -321.791    1102.383     643.556
  N     -321.928    1100.139     643.563
  C     -321.748    1098.898     644.097
  O     -322.043    1097.866     643.514
  C     -321.151    1098.862     645.435
  C     -320.812    1100.011     646.030
  O     -324.122    1101.200     650.423
  O     -321.749    1100.850     651.318
  H     -322.215    1100.113     651.758
  H     -323.139    1104.697     645.975
  H     -322.339    1100.187     642.645
  H     -321.003    1097.897     645.902
  H     -320.367    1100.018     647.012
  H     -319.974    1103.052     645.440
  H     -322.546    1102.780     647.115
  H     -321.715    1104.888     648.125
  H     -319.162    1103.789     648.381
  H     -320.116    1101.952     649.864
  H     -320.655    1103.601     650.287
  P     -320.439    1106.807     646.696
  C     -319.573    1106.756     644.260
  O     -319.534    1107.412     645.519
  O     -320.216    1107.447     648.026
  O     -321.941    1107.034     646.198
  H     -322.275    1107.893     646.546
  H     -318.927    1107.262     643.574
  H     -320.574    1106.768     643.882
  H     -319.248    1105.743     644.375

 6  7  8  9  10  11  12  13  14  15  16  27  31  32  33  34  35 0
 6-311+G(2d,p)
 ****
 36  37 0
 6-311+G(2d,p)
 ****
 1  2  3  4  5  17  18  19  20  21  22  23  24  25 0
 3-21G
 ****
 26  28  29  30  38  39  40  41  42  43  44  45 0
 3-21G
 ****


