%nproc=1
%NoSave
%Mem=1900MB
#P OB98/GEN NMR

erre ene a

0 1
  C     -174.731     394.262    -184.983
  O     -174.854     393.672    -183.704
  H     -175.246     393.655    -185.731
  H     -175.187     395.256    -184.960
  H     -173.674     394.365    -185.252
  P     -174.274     392.187    -183.533
  C     -175.317     389.855    -184.028
  O     -175.296     391.241    -184.332
  C     -176.300     389.148    -184.955
  O     -175.962     389.421    -186.336
  C     -176.295     387.629    -184.817
  O     -177.083     387.179    -183.731
  C     -176.905     387.223    -186.147
  O     -178.328     387.427    -186.116
  C     -176.242     388.219    -187.110
  N     -174.169     384.792    -190.301
  C     -175.452     385.061    -189.978
  N     -175.924     386.004    -189.138
  C     -174.913     386.717    -188.611
  C     -173.557     386.560    -188.847
  C     -173.193     385.535    -189.737
  N     -171.880     385.234    -190.043
  N     -172.826     387.465    -188.104
  C     -173.726     388.166    -187.444
  N     -175.002     387.732    -187.691
  O     -174.579     391.831    -182.002
  O     -172.840     391.999    -183.902
  H     -178.688     387.060    -186.951
  H     -174.072     391.043    -181.729
  H     -176.199     384.440    -190.459
  H     -173.512     388.988    -186.774
  H     -176.899     388.505    -187.942
  H     -176.740     386.166    -186.384
  H     -175.272     387.236    -184.759
  H     -177.302     389.554    -184.773
  H     -175.634     389.721    -182.988
  H     -171.714     384.392    -190.572
  H     -171.145     385.684    -189.521
  H     -174.312     389.439    -184.157
  P     -176.611     385.837    -182.980
  C     -176.654     383.300    -183.537
  O     -176.883     384.627    -183.997
  O     -177.739     385.641    -181.862
  O     -175.239     385.902    -182.395
  H     -177.367     385.223    -181.061
  H     -176.877     382.607    -184.321
  H     -177.284     383.101    -182.695
  H     -175.629     383.194    -183.249

 6  7  8  9  10  11  12  13  14  15  25  28  32  33  34  35 0
 6-311+G(2d,p)
 ****
 36  39  40 0
 6-311+G(2d,p)
 ****
 1  2  3  4  5  16  17  18  19  20  21  22  23  24 0
 3-21G
 ****
 26  27  29  30  31  37  38  41  42  43  44  45  46  47 0
 3-21G
 ****
 48 0
 3-21G
 ****


