%nproc=1
%NoSave
%Mem=1900MB
#P OB98/GEN NMR

erre ene a

0 1
  C      -51.188    -690.974    -501.349
  O      -52.002    -692.057    -500.913
  P      -52.038    -692.368    -499.331
  C      -54.577    -692.870    -499.098
  O      -53.250    -693.386    -499.082
  C      -55.572    -693.895    -498.556
  O      -55.749    -694.948    -499.551
  C      -55.145    -694.584    -497.247
  O      -56.328    -694.820    -496.490
  C      -54.535    -695.877    -497.744
  O      -54.392    -696.884    -496.747
  C      -55.505    -696.200    -498.877
  N      -55.944    -700.990    -500.668
  C      -56.683    -700.281    -499.775
  N      -56.512    -699.013    -499.357
  C      -55.438    -698.463    -499.968
  C      -54.592    -699.048    -500.868
  C      -54.871    -700.387    -501.230
  N      -54.108    -701.104    -502.130
  N      -53.602    -698.167    -501.266
  C      -53.848    -697.065    -500.584
  N      -54.954    -697.185    -499.815
  O      -52.576    -690.989    -498.700
  O      -50.725    -692.780    -498.737
  H      -53.782    -696.578    -496.053
  H      -52.127    -690.781    -497.868
  H      -57.529    -700.810    -499.335
  H      -53.239    -696.169    -500.624
  H      -56.456    -696.585    -498.513
  H      -53.535    -695.687    -498.134
  H      -54.459    -693.968    -496.645
  H      -56.544    -693.398    -498.429
  H      -54.856    -692.622    -500.124
  H      -54.268    -702.094    -502.163
  H      -53.210    -700.711    -502.383
  H      -54.611    -691.940    -498.511
  P      -56.271    -694.699    -494.891
  C      -58.824    -694.364    -494.835
  O      -57.738    -695.170    -494.400
  O      -56.369    -693.110    -494.685
  O      -55.100    -695.344    -494.223
  H      -57.108    -692.725    -495.194
  H      -59.761    -694.853    -494.528
  H      -58.818    -694.258    -495.917
  H      -58.770    -693.369    -494.356
  H      -51.258    -690.881    -502.413
  H      -50.171    -691.159    -501.073
  H      -51.524    -690.068    -500.889

 3  4  5  6  7  8  9  10  11  12  22  25  29  30  31  32 0
 6-311+G(2d,p)
 ****
 33  36  37 0
 6-311+G(2d,p)
 ****
 1  2  13  14  15  16  17  18  19  20  21  23  24  26 0
 3-21G
 ****
 27  28  34  35  38  39  40  41  42  43  44  45  46  47  48 0
 3-21G
 ****


