%nproc=1
%NoSave
%Mem=1900MB
#P OB98/GEN NMR

erre ene a

0 1
  C      292.022    -335.848    -257.180
  O      292.580    -334.920    -256.240
  P      294.146    -334.860    -255.883
  C      294.584    -333.372    -257.955
  O      294.952    -334.544    -257.238
  C      295.817    -332.701    -258.564
  O      296.676    -332.182    -257.519
  C      296.725    -333.612    -259.372
  O      296.170    -333.953    -260.631
  C      297.999    -332.770    -259.455
  O      297.932    -331.828    -260.535
  C      297.988    -332.029    -258.107
  N      299.022    -332.488    -257.197
  C      299.840    -331.505    -256.624
  O      299.714    -330.326    -256.954
  N      300.781    -331.887    -255.700
  C      300.967    -333.145    -255.454
  N      301.900    -333.467    -254.521
  C      300.224    -334.222    -256.142
  C      299.275    -333.825    -256.987
  O      294.648    -336.064    -255.152
  O      294.329    -333.534    -255.006
  H      295.103    -333.633    -254.424
  H      298.791    -331.364    -260.560
  H      300.439    -335.262    -255.935
  H      298.670    -334.553    -257.520
  H      298.105    -330.950    -258.269
  H      298.888    -333.386    -259.620
  H      296.932    -334.523    -258.796
  H      295.473    -331.856    -259.184
  H      302.386    -332.704    -254.060
  H      294.106    -332.674    -257.261
  H      302.107    -334.412    -254.240
  H      293.860    -333.641    -258.735
  P      296.447    -335.437    -261.169
  C      293.925    -335.873    -261.603
  O      295.108    -336.292    -260.955
  O      297.469    -336.045    -260.092
  O      297.018    -335.501    -262.549
  H      298.134    -336.592    -260.545
  H      293.288    -336.745    -261.772
  H      294.137    -335.396    -262.563
  H      293.395    -335.169    -260.956
  H      290.965    -335.695    -257.248
  H      292.218    -336.848    -256.853
  H      292.467    -335.693    -258.141

 3  4  5  6  7  8  9  10  11  12  13  24  27  28  29  30  32 0
 6-311+G(2d,p)
 ****
 34  35 0
 6-311+G(2d,p)
 ****
 1  2  14  15  16  17  18  19  20  21  22  23  25  26 0
 3-21G
 ****
 31  33  36  37  38  39  40  41  42  43  44  45  46 0
 3-21G
 ****


