%nproc=1
%NoSave
%Mem=1900MB
#P OB98/GEN NMR

erre ene a

0 1
  C        5.338      94.890    -211.226
  O        3.967      95.161    -210.989
  P        2.826      94.133    -211.461
  C        2.782      92.868    -213.713
  O        2.915      94.123    -213.062
  C        3.049      93.027    -215.209
  O        4.432      93.372    -215.417
  C        2.804      91.770    -216.031
  O        1.416      91.555    -216.234
  C        3.609      92.087    -217.286
  O        2.869      92.966    -218.150
  C        4.827      92.829    -216.702
  N        6.005      91.978    -216.572
  C        7.074      92.259    -217.430
  O        7.016      93.183    -218.237
  N        8.214      91.498    -217.327
  C        8.273      90.529    -216.466
  N        9.452      89.853    -216.363
  C        7.150      90.166    -215.582
  C        6.061      90.928    -215.685
  O        1.468      94.412    -210.916
  O        3.394      92.695    -211.073
  H        3.424      93.123    -218.939
  H        3.162      92.411    -210.152
  H        7.244      89.342    -214.889
  H        5.199      90.737    -215.057
  H        5.079      93.691    -217.331
  H        3.879      91.197    -217.868
  H        3.233      90.893    -215.528
  H        2.428      93.854    -215.579
  H       10.245      90.247    -216.858
  H        1.760      92.504    -213.568
  H        9.674      89.301    -215.544
  H        3.477      92.152    -213.265
  P        0.927      90.046    -216.476
  C        1.810      88.230    -218.107
  O        1.554      89.605    -217.893
  O       -0.638      90.207    -216.765
  O        1.202      89.120    -215.339
  H       -1.154      89.978    -215.968
  H        1.997      88.074    -219.171
  H        0.946      87.622    -217.812
  H        2.694      87.921    -217.544
  H        5.932      95.691    -210.838
  H        5.507      94.798    -212.279
  H        5.610      93.976    -210.740

 3  4  5  6  7  8  9  10  11  12  13  23  27  28  29  30  32 0
 6-311+G(2d,p)
 ****
 34  35 0
 6-311+G(2d,p)
 ****
 1  2  14  15  16  17  18  19  20  21  22  24  25  26 0
 3-21G
 ****
 31  33  36  37  38  39  40  41  42  43  44  45  46 0
 3-21G
 ****


