%nproc=1
%NoSave
%Mem=1900MB
#P OB98/GEN NMR

erre ene a

0 1
  C      112.038     142.729    -613.474
  O      113.271     142.037    -613.552
  P      113.938     141.557    -612.168
  C      112.823     139.202    -612.034
  O      112.909     140.515    -611.502
  C      112.831     138.171    -610.896
  O      114.176     137.958    -610.428
  C      112.029     138.584    -609.673
  O      110.632     138.438    -609.899
  C      112.604     137.631    -608.635
  O      112.024     136.326    -608.780
  C      114.096     137.584    -609.031
  N      116.433     138.317    -604.526
  C      115.668     137.305    -604.995
  N      115.066     137.193    -606.194
  C      115.320     138.272    -606.959
  C      116.062     139.382    -606.607
  C      116.641     139.387    -605.333
  N      117.417     140.424    -604.858
  N      116.083     140.297    -607.644
  C      115.371     139.739    -608.600
  N      114.907     138.505    -608.240
  O      113.808     142.847    -611.238
  O      115.349     141.077    -612.285
  H      111.102     136.379    -608.463
  H      114.570     142.915    -610.627
  H      115.513     136.477    -604.307
  H      115.180     140.179    -609.572
  H      114.531     136.583    -608.925
  H      112.427     137.956    -607.601
  H      112.251     139.625    -609.400
  H      112.452     137.223    -611.305
  H      113.689     139.012    -612.683
  H      117.667     140.412    -603.885
  H      117.454     141.278    -605.401
  H      111.919     139.116    -612.637
  P      109.641     139.109    -608.829
  C      109.906     141.194    -610.312
  O      109.921     140.682    -608.983
  O      110.377     138.769    -607.450
  O      108.215     138.683    -608.945
  H      111.322     138.977    -607.475
  H      110.057     142.278    -610.277
  H      108.949     140.983    -610.790
  H      110.720     140.746    -610.893
  H      111.711     142.987    -614.460
  H      112.165     143.620    -612.896
  H      111.306     142.103    -613.008

 3  4  5  6  7  8  9  10  11  12  22  25  29  30  31  32 0
 6-311+G(2d,p)
 ****
 33  36  37 0
 6-311+G(2d,p)
 ****
 1  2  13  14  15  16  17  18  19  20  21  23  24  26 0
 3-21G
 ****
 27  28  34  35  38  39  40  41  42  43  44  45  46  47  48 0
 3-21G
 ****


