%nproc=1
%NoSave
%Mem=1900MB
#P OB98/GEN NMR

erre ene a

0 1
  C      105.525      71.383     -84.127
  O      106.082      70.743     -82.980
  P      107.356      69.790     -83.179
  C      107.852      67.393     -84.001
  O      106.860      68.397     -83.801
  C      107.196      66.043     -84.346
  O      106.486      65.555     -83.177
  C      106.158      66.101     -85.473
  O      106.603      65.922     -86.812
  C      105.290      64.886     -85.139
  O      105.899      63.692     -85.667
  C      105.310      64.837     -83.613
  N      100.192      64.746     -83.528
  C      101.098      64.033     -84.235
  N      102.443      64.119     -84.200
  C      102.839      65.047     -83.312
  C      102.032      65.848     -82.519
  C      100.644      65.674     -82.651
  N       99.720      66.406     -81.938
  N      102.797      66.689     -81.737
  C      104.044      66.414     -82.069
  N      104.122      65.419     -83.006
  O      108.278      69.680     -82.012
  O      108.101      70.471     -84.427
  H      106.018      63.841     -86.624
  H      109.067      70.407     -84.294
  H      100.686      63.297     -84.923
  H      104.917      66.905     -81.657
  H      105.392      63.811     -83.229
  H      104.294      64.952     -85.582
  H      105.555      67.016     -85.403
  H      107.981      65.317     -84.596
  H      108.453      67.287     -83.094
  H       98.744      66.249     -82.128
  H      100.039      67.142     -81.325
  H      108.525      67.745     -84.786
  P      106.544      67.116     -87.878
  C      104.724      67.900     -89.592
  O      105.075      67.049     -88.520
  O      107.654      67.137     -88.873
  O      106.466      68.414     -86.942
  H      105.634      68.503     -86.448
  H      103.778      67.555     -90.018
  H      105.490      67.883     -90.370
  H      104.591      68.922     -89.220
  H      104.688      71.980     -83.831
  H      105.205      70.642     -84.829
  H      106.265      72.008     -84.581

 3  4  5  6  7  8  9  10  11  12  22  25  29  30  31  32 0
 6-311+G(2d,p)
 ****
 33  36  37 0
 6-311+G(2d,p)
 ****
 1  2  13  14  15  16  17  18  19  20  21  23  24  26 0
 3-21G
 ****
 27  28  34  35  38  39  40  41  42  43  44  45  46  47  48 0
 3-21G
 ****


