%nproc=1
%NoSave
%Mem=1900MB
#P OB98/GEN NMR

erre ene a

0 1
  C      295.931     258.720     228.123
  O      297.045     259.562     227.903
  H      295.433     258.544     227.167
  H      295.223     259.208     228.799
  H      296.240     257.755     228.541
  P      298.119     259.748     229.083
  C      298.413     261.353     231.081
  O      297.666     261.051     229.905
  C      297.956     262.682     231.682
  O      298.267     263.763     230.742
  C      296.446     262.752     231.978
  O      296.270     263.618     233.112
  C      295.919     263.422     230.726
  O      294.625     263.948     230.919
  C      297.027     264.439     230.443
  N      296.996     264.948     229.074
  C      296.313     266.139     228.867
  O      295.725     266.743     229.769
  N      296.283     266.598     227.578
  C      296.811     265.963     226.490
  O      296.725     266.411     225.350
  C      297.490     264.683     226.767
  C      297.554     264.242     228.018
  O      299.554     259.740     228.656
  O      297.795     258.561     230.107
  H      293.979     263.225     231.082
  H      298.609     258.281     230.565
  H      295.800     267.471     227.417
  H      297.902     264.149     225.916
  H      298.036     263.298     228.254
  H      296.944     265.299     231.129
  H      295.853     262.700     229.905
  H      296.000     261.774     232.166
  H      298.543     262.877     232.588
  H      299.473     261.418     230.803
  H      298.280     260.547     231.812
  P      296.072     263.044     234.603
  C      294.110     261.934     235.858
  O      294.798     262.063     234.611
  O      296.039     264.093     235.663
  O      297.310     262.047     234.815
  H      297.526     262.002     235.773
  H      293.286     261.261     235.743
  H      293.747     262.892     236.166
  H      294.782     261.552     236.598

 6  7  8  9  10  11  12  13  14  15  16  26  31  32  33  34  35 0
 6-311+G(2d,p)
 ****
 36  37 0
 6-311+G(2d,p)
 ****
 1  2  3  4  5  17  18  19  20  21  22  23  24  25 0
 3-21G
 ****
 27  28  29  30  38  39  40  41  42  43  44  45 0
 3-21G
 ****


