%nproc=1
%NoSave
%Mem=1900MB
#P OB98/GEN NMR

erre ene a

0 1
  C       -8.015    -312.212      82.916
  O       -8.451    -313.565      82.957
  P      -10.000    -313.859      82.648
  C      -11.193    -314.428      84.887
  O      -10.794    -313.412      83.971
  C       -9.989    -314.966      85.652
  O       -9.308    -313.888      86.324
  C      -10.330    -315.979      86.734
  O      -10.510    -317.285      86.211
  C       -9.068    -315.922      87.587
  O       -8.025    -316.695      86.970
  C       -8.718    -314.426      87.537
  N       -7.835    -313.224      92.430
  C       -7.189    -314.046      91.576
  N       -7.495    -314.328      90.288
  C       -8.611    -313.676      89.914
  C       -9.394    -312.838      90.689
  C       -8.961    -312.604      92.004
  N       -9.602    -311.741      92.863
  N      -10.464    -312.362      89.964
  C      -10.328    -312.897      88.767
  N       -9.217    -313.692      88.685
  O      -10.079    -315.457      82.689
  O      -10.501    -313.301      81.359
  H       -8.294    -317.635      87.026
  H      -10.848    -315.763      82.174
  H       -6.306    -314.546      91.972
  H      -10.996    -312.734      87.931
  H       -7.635    -314.257      87.481
  H       -9.216    -316.332      88.594
  H      -11.190    -315.651      87.329
  H       -9.292    -315.400      84.923
  H      -11.656    -315.250      84.327
  H       -9.130    -311.484      93.721
  H      -10.319    -311.130      92.481
  H      -11.934    -314.015      85.577
  P      -11.495    -318.261      87.022
  C       -9.787    -319.904      88.087
  O      -10.642    -318.791      88.265
  O      -11.617    -319.535      86.064
  O      -12.826    -317.659      87.337
  H      -12.460    -320.003      86.222
  H       -9.071    -319.937      88.909
  H       -9.233    -319.835      87.141
  H      -10.378    -320.829      88.099
  H       -6.970    -312.167      83.140
  H       -8.559    -311.640      83.638
  H       -8.188    -311.811      81.939

 3  4  5  6  7  8  9  10  11  12  22  25  29  30  31  32 0
 6-311+G(2d,p)
 ****
 33  36  37 0
 6-311+G(2d,p)
 ****
 1  2  13  14  15  16  17  18  19  20  21  23  24  26 0
 3-21G
 ****
 27  28  34  35  38  39  40  41  42  43  44  45  46  47  48 0
 3-21G
 ****


