%nproc=1
%NoSave
%Mem=1900MB
#P OB98/GEN NMR

erre ene a

0 1
  C     -273.645      79.453    -863.958
  O     -272.372      80.009    -863.697
  H     -273.746      78.492    -863.455
  H     -274.411      80.135    -863.574
  H     -273.789      79.332    -865.033
  P     -271.099      79.144    -864.150
  C     -270.717      80.592    -866.269
  O     -270.973      79.294    -865.748
  C     -270.412      80.504    -867.762
  O     -269.036      80.070    -867.922
  C     -271.311      79.529    -868.542
  O     -271.984      80.218    -869.602
  C     -270.342      78.527    -869.162
  O     -270.683      78.169    -870.498
  C     -269.001      79.253    -869.098
  N     -265.678      76.617    -871.927
  C     -266.388      77.738    -872.191
  N     -267.174      78.451    -871.362
  C     -267.170      77.915    -870.123
  C     -266.479      76.793    -869.700
  C     -265.718      76.121    -870.669
  N     -265.037      74.948    -870.410
  N     -266.731      76.542    -868.361
  C     -267.588      77.474    -868.001
  N     -267.900      78.316    -869.040
  O     -271.595      77.633    -863.955
  O     -269.844      79.418    -863.393
  H     -269.935      77.658    -870.851
  H     -270.915      77.126    -863.474
  H     -266.321      78.108    -873.212
  H     -268.055      77.559    -867.025
  H     -268.846      79.911    -869.962
  H     -270.332      77.619    -868.549
  H     -272.042      79.019    -867.903
  H     -270.483      81.509    -868.189
  H     -269.854      81.032    -865.753
  H     -264.614      74.473    -871.193
  H     -265.153      74.510    -869.510
  H     -271.591      81.226    -866.087
  P     -273.526      79.826    -869.853
  C     -274.498      82.185    -869.337
  O     -274.424      80.814    -868.959
  O     -273.665      78.422    -869.100
  O     -273.897      79.726    -871.294
  H     -274.376      77.891    -869.503
  H     -275.128      82.711    -868.651
  H     -274.904      82.261    -870.324
  H     -273.517      82.613    -869.320

 6  7  8  9  10  11  12  13  14  15  25  28  32  33  34  35 0
 6-311+G(2d,p)
 ****
 36  39  40 0
 6-311+G(2d,p)
 ****
 1  2  3  4  5  16  17  18  19  20  21  22  23  24 0
 3-21G
 ****
 26  27  29  30  31  37  38  41  42  43  44  45  46  47  48 0
 3-21G
 ****


