%nproc=1
%NoSave
%Mem=1900MB
#P OB98/GEN NMR

erre ene a

0 1
  C       91.681     -87.272    -105.166
  O       90.893     -86.194    -104.703
  P       91.261     -84.673    -105.051
  C       92.771     -84.648    -102.970
  O       92.687     -84.402    -104.365
  C       93.786     -83.722    -102.299
  O       95.090     -83.899    -102.920
  C       93.436     -82.229    -102.375
  O       93.918     -81.641    -101.163
  C       94.261     -81.761    -103.559
  O       94.453     -80.352    -103.571
  C       95.531     -82.602    -103.377
  N       96.312     -82.687    -104.606
  C       97.227     -81.659    -104.841
  O       97.293     -80.698    -104.071
  N       98.008     -81.711    -105.969
  C       97.814     -82.653    -106.837
  N       98.619     -82.658    -107.931
  C       96.772     -83.686    -106.689
  C       96.074     -83.654    -105.555
  O       90.205     -83.672    -104.723
  O       91.632     -84.722    -106.607
  H       93.582     -79.921    -103.430
  H       90.809     -84.771    -107.156
  H       96.609     -84.419    -107.465
  H       95.290     -84.371    -105.356
  H       96.167     -82.176    -102.591
  H       93.754     -82.036    -104.492
  H       92.369     -82.035    -102.502
  H       93.883     -84.030    -101.251
  H       99.331     -81.940    -107.986
  H       93.094     -85.684    -102.827
  H       98.606     -83.391    -108.625
  H       91.782     -84.541    -102.511
  P       92.985     -80.699    -100.264
  C       94.433     -78.729    -101.021
  O       93.114     -79.215    -100.854
  O       93.203     -80.811     -98.791
  O       91.492     -81.122    -100.666
  H       90.868     -80.786     -99.995
  H       94.407     -77.851    -101.674
  H       95.078     -79.488    -101.472
  H       94.840     -78.436    -100.050
  H       91.261     -88.194    -104.822
  H       92.678     -87.172    -104.791
  H       91.700     -87.266    -106.236

 3  4  5  6  7  8  9  10  11  12  13  23  27  28  29  30  32 0
 6-311+G(2d,p)
 ****
 34  35 0
 6-311+G(2d,p)
 ****
 1  2  14  15  16  17  18  19  20  21  22  24  25  26 0
 3-21G
 ****
 31  33  36  37  38  39  40  41  42  43  44  45  46 0
 3-21G
 ****


