%nproc=1
%NoSave
%Mem=1900MB
#P OB98/GEN NMR

erre ene a

0 1
  C     -242.855      34.851    -227.989
  O     -242.917      33.968    -226.884
  P     -242.016      32.645    -226.865
  C     -239.925      33.990    -226.096
  O     -240.494      33.113    -227.043
  C     -238.468      33.614    -225.797
  O     -238.452      32.250    -225.312
  C     -237.540      33.639    -227.007
  O     -236.189      33.690    -226.540
  C     -237.811      32.291    -227.634
  O     -236.761      31.880    -228.506
  C     -238.039      31.384    -226.397
  N     -239.067      30.362    -226.657
  C     -238.620      29.075    -226.938
  O     -237.433      28.757    -226.899
  N     -239.576      28.186    -227.347
  C     -240.893      28.478    -227.540
  O     -241.661      27.777    -228.189
  C     -241.342      29.772    -227.004
  C     -240.418      30.654    -226.616
  O     -242.370      31.955    -228.264
  O     -242.267      31.731    -225.715
  H     -237.088      31.089    -228.992
  H     -243.055      31.272    -228.139
  H     -239.230      27.296    -227.688
  H     -242.402      29.983    -227.000
  H     -240.717      31.638    -226.264
  H     -237.117      30.869    -226.104
  H     -238.730      32.351    -228.229
  H     -237.730      34.460    -227.704
  H     -238.083      34.261    -225.000
  H     -240.524      33.971    -225.181
  H     -239.958      35.022    -226.467
  P     -235.341      35.017    -226.843
  C     -235.809      36.265    -224.650
  O     -236.059      36.203    -226.040
  O     -235.054      35.295    -228.281
  O     -233.995      34.785    -226.001
  H     -233.292      35.371    -226.337
  H     -235.882      37.307    -224.325
  H     -234.814      35.886    -224.403
  H     -236.562      35.676    -224.121
  H     -243.521      35.673    -227.827
  H     -243.142      34.330    -228.878
  H     -241.856      35.217    -228.097

 3  4  5  6  7  8  9  10  11  12  13  23  28  29  30  31  32 0
 6-311+G(2d,p)
 ****
 33  34 0
 6-311+G(2d,p)
 ****
 1  2  14  15  16  17  18  19  20  21  22  24  25  26  27 0
 3-21G
 ****
 35  36  37  38  39  40  41  42  43  44  45 0
 3-21G
 ****


