%nproc=1
%NoSave
%Mem=1900MB
#P OB98/GEN NMR

erre ene a

0 1
  C      350.488    -898.590    -701.151
  O      350.999    -897.350    -701.625
  H      349.994    -898.400    -700.189
  H      351.285    -899.310    -700.992
  H      349.757    -898.970    -701.851
  P      351.916    -897.370    -702.949
  C      350.131    -896.110    -704.322
  O      350.895    -897.320    -704.196
  C      349.222    -896.190    -705.560
  O      350.090    -896.070    -706.739
  C      348.414    -897.500    -705.704
  O      347.149    -897.180    -706.223
  C      349.252    -898.280    -706.693
  O      348.484    -899.280    -707.348
  C      349.833    -897.200    -707.593
  N      351.035    -897.650    -708.303
  C      350.861    -898.590    -709.274
  O      349.742    -899.020    -709.581
  N      351.981    -899.100    -709.916
  C      353.170    -898.740    -709.538
  N      354.214    -899.310    -710.141
  C      353.394    -897.750    -708.444
  C      352.302    -897.250    -707.888
  O      352.948    -898.450    -703.027
  O      352.592    -895.910    -702.950
  H      349.070    -899.920    -707.788
  H      353.446    -895.940    -702.476
  H      354.389    -897.470    -708.148
  H      352.345    -896.520    -707.048
  H      349.102    -896.910    -708.350
  H      350.080    -898.810    -706.148
  H      348.330    -898.040    -704.724
  H      348.570    -895.310    -705.553
  H      354.032    -900.000    -710.891
  H      350.811    -895.300    -704.388
  H      355.196    -899.120    -709.905
  H      349.502    -895.990    -703.438
  P      345.979    -896.670    -705.250
  C      346.331    -894.350    -706.289
  O      346.124    -895.070    -705.068
  O      345.828    -897.440    -703.982
  O      344.650    -896.810    -706.159
  H      343.883    -897.000    -705.564
  H      346.416    -893.305    -706.077
  H      345.502    -894.515    -706.945
  H      347.230    -894.693    -706.757

 6  7  8  9  10  11  12  13  14  15  16  26  30  31  32  33  35 0
 6-311+G(2d,p)
 ****
 37  38 0
 6-311+G(2d,p)
 ****
 1  2  3  4  5  17  18  19  20  21  22  23  24  25 0
 3-21G
 ****
 27  28  29  34  36  39  40  41  42  43  44  45  46 0
 3-21G
 ****


