%nproc=1
%NoSave
%Mem=1900MB
#P OB98/GEN NMR

erre ene a

0 1
  C     -379.905    -727.434    -388.809
  O     -379.203    -726.368    -389.426
  H     -379.252    -728.307    -388.774
  H     -380.792    -727.686    -389.398
  H     -380.191    -727.167    -387.789
  P     -379.883    -724.920    -389.472
  C     -379.022    -724.346    -387.100
  O     -380.158    -724.485    -387.950
  C     -379.133    -723.060    -386.291
  O     -379.086    -721.915    -387.163
  C     -380.436    -722.931    -385.510
  O     -380.429    -723.742    -384.348
  C     -380.459    -721.428    -385.239
  O     -379.626    -721.104    -384.123
  C     -379.868    -720.871    -386.554
  N     -380.900    -720.381    -387.471
  C     -381.279    -719.045    -387.324
  O     -380.823    -718.306    -386.450
  N     -382.243    -718.600    -388.193
  C     -382.917    -719.362    -389.100
  O     -383.832    -718.925    -389.795
  C     -382.493    -720.770    -389.195
  C     -381.513    -721.200    -388.395
  O     -381.053    -724.775    -390.384
  O     -378.683    -723.953    -389.902
  H     -379.995    -721.591    -383.349
  H     -378.797    -723.694    -390.837
  H     -382.536    -717.640    -388.084
  H     -382.989    -721.396    -389.922
  H     -381.192    -722.229    -388.441
  H     -379.185    -720.042    -386.340
  H     -381.456    -721.073    -385.014
  H     -381.286    -723.187    -386.154
  H     -378.273    -723.007    -385.610
  H     -378.118    -724.319    -387.718
  H     -378.967    -725.222    -386.438
  P     -381.790    -724.038    -383.570
  C     -381.816    -726.414    -384.550
  O     -382.559    -725.217    -384.347
  O     -382.621    -722.836    -383.268
  O     -381.311    -724.751    -382.222
  H     -381.601    -724.212    -381.457
  H     -382.421    -727.125    -385.073
  H     -381.527    -726.820    -383.603
  H     -380.941    -726.197    -385.127

 6  7  8  9  10  11  12  13  14  15  16  26  31  32  33  34  35 0
 6-311+G(2d,p)
 ****
 36  37 0
 6-311+G(2d,p)
 ****
 1  2  3  4  5  17  18  19  20  21  22  23  24  25 0
 3-21G
 ****
 27  28  29  30  38  39  40  41  42  43  44  45 0
 3-21G
 ****


