%nproc=1
%NoSave
%Mem=1900MB
#P OB98/GEN NMR

erre ene a

0 1
  C     1107.431    -893.516    -738.690
  O     1108.542    -892.706    -738.357
  H     1106.870    -893.032    -739.490
  H     1106.773    -893.642    -737.830
  H     1107.778    -894.502    -739.036
  P     1109.445    -893.189    -737.122
  C     1108.893    -891.371    -735.326
  O     1109.836    -891.872    -736.287
  C     1109.490    -890.146    -734.639
  O     1110.637    -890.554    -733.826
  C     1110.023    -889.081    -735.587
  O     1108.998    -888.267    -736.123
  C     1110.943    -888.307    -734.661
  O     1110.216    -887.304    -733.907
  C     1111.517    -889.394    -733.755
  N     1112.896    -889.724    -734.103
  C     1113.791    -888.680    -734.083
  O     1113.460    -887.503    -733.813
  N     1115.080    -888.960    -734.448
  C     1115.513    -890.193    -734.839
  O     1116.687    -890.377    -735.200
  C     1114.537    -891.285    -734.854
  C     1113.278    -891.003    -734.477
  O     1110.818    -893.630    -737.819
  O     1108.863    -894.292    -736.311
  H     1110.899    -894.584    -737.835
  H     1110.891    -886.864    -733.350
  H     1115.745    -888.211    -734.458
  H     1114.854    -892.268    -735.170
  H     1112.526    -891.780    -734.491
  H     1111.497    -889.064    -732.697
  H     1111.719    -887.780    -735.233
  H     1110.623    -889.562    -736.382
  H     1108.733    -889.722    -733.971
  H     1108.697    -892.152    -734.587
  H     1107.958    -891.129    -735.847
  P     1108.573    -888.529    -737.663
  C     1108.776    -885.966    -738.300
  O     1107.965    -887.133    -738.193
  O     1107.308    -889.472    -737.478
  O     1109.693    -889.095    -738.496
  H     1106.865    -889.340    -736.626
  H     1108.185    -885.154    -738.669
  H     1109.585    -886.154    -738.975
  H     1109.167    -885.714    -737.336

 6  7  8  9  10  11  12  13  14  15  16  27  31  32  33  34  35 0
 6-311+G(2d,p)
 ****
 36  37 0
 6-311+G(2d,p)
 ****
 1  2  3  4  5  17  18  19  20  21  22  23  24  25 0
 3-21G
 ****
 26  28  29  30  38  39  40  41  42  43  44  45 0
 3-21G
 ****


