%nproc=1
%NoSave
%Mem=1900MB
#P OB98/GEN NMR

erre ene a

0 1
  C       19.723    -293.992     502.320
  O       18.592    -294.691     501.849
  H       20.499    -294.029     501.552
  H       20.112    -294.463     503.225
  H       19.474    -292.944     502.518
  P       17.303    -294.835     502.796
  C       14.914    -294.403     501.960
  O       16.085    -295.193     501.805
  C       13.993    -294.539     500.747
  O       14.628    -293.933     499.586
  C       13.656    -295.993     500.383
  O       12.254    -296.127     500.155
  C       14.410    -296.220     499.080
  O       13.847    -297.255     498.281
  C       14.370    -294.813     498.474
  N       15.335    -294.650     497.397
  C       14.843    -294.802     496.096
  O       13.650    -295.059     495.913
  N       15.716    -294.721     495.046
  C       16.984    -294.550     495.269
  N       17.798    -294.510     494.185
  C       17.548    -294.409     496.630
  C       16.679    -294.464     497.637
  O       17.061    -293.669     503.697
  O       17.528    -296.204     503.591
  H       12.973    -296.951     497.953
  H       16.991    -296.190     504.416
  H       18.613    -294.272     496.763
  H       17.004    -294.371     498.665
  H       13.366    -294.581     498.085
  H       15.448    -296.495     499.308
  H       13.964    -296.705     501.151
  H       13.084    -293.954     500.933
  H       17.367    -294.615     493.273
  H       15.216    -293.355     502.099
  H       18.798    -294.402     494.237
  H       14.380    -294.745     502.856
  P       11.425    -296.936     501.268
  C        8.928    -297.556     501.598
  O        9.962    -297.231     500.681
  O       11.176    -295.844     502.409
  O       12.152    -298.127     501.798
  H       11.709    -296.060     503.196
  H        8.017    -297.725     501.063
  H        8.793    -296.747     502.285
  H        9.194    -298.441     502.137

 6  7  8  9  10  11  12  13  14  15  16  26  30  31  32  33  35 0
 6-311+G(2d,p)
 ****
 37  38 0
 6-311+G(2d,p)
 ****
 1  2  3  4  5  17  18  19  20  21  22  23  24  25 0
 3-21G
 ****
 27  28  29  34  36  39  40  41  42  43  44  45  46 0
 3-21G
 ****


