%nproc=1
%NoSave
%Mem=1900MB
#P OB98/GEN NMR

erre ene a

0 1
  C      -97.159    -423.688    -527.345
  O      -96.404    -424.320    -526.336
  H      -97.313    -424.405    -528.159
  H      -96.616    -422.825    -527.747
  H      -98.131    -423.374    -526.967
  P      -95.988    -423.485    -525.026
  C      -93.709    -424.558    -524.513
  O      -94.374    -423.425    -525.056
  C      -92.191    -424.360    -524.530
  O      -91.700    -424.477    -525.893
  C      -91.735    -422.989    -524.000
  O      -90.644    -423.165    -523.083
  C      -91.236    -422.269    -525.239
  O      -90.285    -421.244    -524.951
  C      -90.709    -423.451    -526.066
  N      -90.512    -423.092    -527.462
  C      -89.423    -422.249    -527.742
  O      -88.696    -421.858    -526.818
  N      -89.220    -421.824    -529.026
  C      -90.060    -422.172    -529.955
  N      -89.809    -421.698    -531.206
  C      -91.243    -423.038    -529.709
  C      -91.391    -423.464    -528.452
  O      -96.573    -423.992    -523.746
  O      -96.403    -421.974    -525.353
  H      -89.993    -420.837    -525.795
  H      -96.510    -421.484    -524.506
  H      -91.902    -423.291    -530.516
  H      -92.226    -424.098    -528.179
  H      -89.756    -423.824    -525.660
  H      -92.090    -421.805    -525.756
  H      -92.531    -422.432    -523.506
  H      -91.720    -425.178    -523.965
  H      -89.008    -421.096    -531.332
  H      -93.987    -425.440    -525.089
  H      -90.414    -421.877    -532.003
  H      -94.032    -424.684    -523.472
  P      -90.948    -422.777    -521.547
  C      -90.375    -420.241    -521.691
  O      -91.385    -421.229    -521.504
  O      -89.497    -422.787    -520.874
  O      -91.886    -423.721    -520.865
  H      -89.419    -423.546    -520.261
  H      -90.814    -419.267    -521.637
  H      -89.919    -420.374    -522.650
  H      -89.633    -420.341    -520.927

 6  7  8  9  10  11  12  13  14  15  16  26  30  31  32  33  35 0
 6-311+G(2d,p)
 ****
 37  38 0
 6-311+G(2d,p)
 ****
 1  2  3  4  5  17  18  19  20  21  22  23  24  25 0
 3-21G
 ****
 27  28  29  34  36  39  40  41  42  43  44  45  46 0
 3-21G
 ****


