%nproc=1
%NoSave
%Mem=1900MB
#P OB98/GEN NMR

erre ene a

0 1
  C     -155.454     106.943    -108.774
  O     -155.536     108.326    -109.057
  H     -155.990     106.744    -107.843
  H     -154.410     106.652    -108.647
  H     -155.910     106.360    -109.578
  P     -154.888     108.822    -110.439
  C     -155.514     108.625    -112.948
  O     -155.883     108.338    -111.607
  C     -156.516     109.585    -113.590
  O     -157.819     108.932    -113.654
  C     -156.703     110.907    -112.824
  O     -156.932     111.946    -113.785
  C     -157.998     110.676    -112.059
  O     -158.631     111.893    -111.674
  C     -158.775     109.853    -113.087
  N     -163.610     108.642    -113.784
  C     -162.727     109.318    -114.604
  N     -163.204     109.741    -115.795
  N     -161.483     109.561    -114.284
  C     -161.131     109.055    -113.077
  C     -161.911     108.373    -112.171
  C     -163.296     108.135    -112.527
  O     -164.130     107.559    -111.834
  N     -161.191     108.052    -111.045
  C     -159.983     108.536    -111.275
  N     -159.896     109.154    -112.492
  O     -153.620     107.857    -110.597
  O     -154.504     110.264    -110.485
  H     -159.349     111.673    -111.047
  H     -152.823     108.282    -110.225
  H     -164.562     108.494    -114.074
  H     -159.142     108.472    -110.595
  H     -159.179     110.471    -113.898
  H     -157.803     110.089    -111.153
  H     -164.134     109.547    -116.130
  H     -155.863     111.178    -112.177
  H     -162.558     110.198    -116.430
  H     -156.209     109.773    -114.622
  H     -155.497     107.690    -113.520
  H     -154.514     109.069    -112.959
  P     -156.280     113.383    -113.510
  C     -153.765     113.281    -112.847
  O     -154.724     113.307    -113.896
  O     -156.244     113.457    -111.908
  O     -157.040     114.526    -114.099
  H     -156.290     114.387    -111.620
  H     -152.781     113.230    -113.264
  H     -153.935     112.424    -112.229
  H     -153.857     114.169    -112.258

 6  7  8  9  10  11  12  13  14  15  26  29  33  34 0
 6-311+G(2d,p)
 ****
 36  38  39  40  41 0
 6-311+G(2d,p)
 ****
 1  2  3  4  5  16  17  18  19  20  21  22  23  24  25 0
 3-21G
 ****
 27  28  30  31  32  35  37  42  43  44  45  46  47 0
 3-21G
 ****
 48  49 0
 3-21G
 ****


