%nproc=1
%NoSave
%Mem=1900MB
#P OB98/GEN NMR

erre ene a

0 1
  C     -272.323     -10.442    -104.271
  O     -271.381     -10.401    -103.217
  H     -273.342     -10.419    -103.872
  H     -272.172      -9.568    -104.911
  H     -272.177     -11.347    -104.869
  P     -271.509     -11.552    -102.104
  C     -273.621     -12.193    -100.742
  O     -272.760     -11.151    -101.179
  C     -274.633     -11.657     -99.740
  O     -273.966     -11.256     -98.526
  C     -275.399     -10.424    -100.203
  O     -276.453     -10.757    -101.095
  C     -275.932      -9.906     -98.873
  O     -277.104     -10.653     -98.498
  C     -274.777     -10.220     -97.910
  N     -273.791      -6.429     -94.586
  C     -274.716      -7.415     -94.579
  N     -274.927      -8.377     -95.502
  C     -274.048      -8.274     -96.511
  C     -273.050      -7.322     -96.654
  C     -272.938      -6.362     -95.635
  N     -272.002      -5.346     -95.662
  N     -272.335      -7.537     -97.814
  C     -272.887      -8.602     -98.363
  N     -273.933      -9.077     -97.614
  O     -270.245     -11.286    -101.147
  O     -271.517     -12.950    -102.623
  H     -276.800     -11.549     -98.261
  H     -269.904     -12.144    -100.832
  H     -275.378      -7.434     -93.717
  H     -272.567      -9.061     -99.287
  H     -275.145     -10.626     -96.962
  H     -276.212      -8.849     -98.905
  H     -274.725      -9.678    -100.638
  H     -275.323     -12.473     -99.486
  H     -273.025     -12.982    -100.267
  H     -271.838      -4.815     -94.821
  H     -271.362      -5.311     -96.449
  H     -274.133     -12.615    -101.613
  P     -276.657      -9.818    -102.383
  C     -276.996      -7.266    -102.727
  O     -276.979      -8.356    -101.807
  O     -278.071     -10.305    -102.966
  O     -275.577      -9.903    -103.409
  H     -278.116     -10.113    -103.923
  H     -277.223      -6.361    -102.203
  H     -277.741      -7.442    -103.475
  H     -276.037      -7.178    -103.193

 6  7  8  9  10  11  12  13  14  15  25  28  32  33  34  35 0
 6-311+G(2d,p)
 ****
 36  39  40 0
 6-311+G(2d,p)
 ****
 1  2  3  4  5  16  17  18  19  20  21  22  23  24 0
 3-21G
 ****
 26  27  29  30  31  37  38  41  42  43  44  45  46  47  48 0
 3-21G
 ****


