%nproc=1
%NoSave
%Mem=1900MB
#P OB98/GEN NMR

erre ene a

0 1
  C       -8.155      65.795      81.178
  O       -9.083      66.134      82.189
  H       -8.335      66.398      80.285
  H       -7.146      65.999      81.543
  H       -8.235      64.733      80.933
  P      -10.636      65.944      81.839
  C      -12.530      67.465      80.929
  O      -11.136      67.317      81.165
  C      -12.777      68.662      80.013
  O      -12.032      69.795      80.531
  C      -12.360      68.446      78.548
  O      -13.479      68.645      77.679
  C      -11.340      69.542      78.279
  O      -11.479      70.135      76.988
  C      -11.603      70.551      79.392
  N       -8.125      73.731      77.452
  C       -9.383      73.436      77.058
  N      -10.297      72.661      77.677
  C       -9.808      72.188      78.838
  C       -8.557      72.420      79.381
  C       -7.685      73.220      78.625
  N       -6.383      73.476      78.998
  N       -8.415      71.756      80.586
  C       -9.545      71.097      80.743
  N      -10.408      71.313      79.702
  O      -11.341      65.957      83.278
  O      -10.968      64.708      81.073
  H      -10.817      70.850      76.936
  H      -11.963      65.208      83.345
  H       -9.696      73.874      76.114
  H       -9.772      70.422      81.559
  H      -12.402      71.256      79.131
  H      -10.331      69.116      78.356
  H      -11.927      67.454      78.373
  H      -13.841      68.923      80.069
  H      -13.048      67.633      81.879
  H       -5.792      73.961      78.340
  H       -6.014      73.009      79.814
  H      -12.914      66.544      80.479
  P      -14.034      67.346      76.906
  C      -13.003      65.744      75.132
  O      -13.033      67.053      75.688
  O      -15.348      67.898      76.179
  O      -14.330      66.191      77.801
  H      -15.984      67.170      76.039
  H      -12.290      65.711      74.335
  H      -13.972      65.495      74.754
  H      -12.724      65.041      75.889

 6  7  8  9  10  11  12  13  14  15  25  28  32  33  34  35 0
 6-311+G(2d,p)
 ****
 36  39  40 0
 6-311+G(2d,p)
 ****
 1  2  3  4  5  16  17  18  19  20  21  22  23  24 0
 3-21G
 ****
 26  27  29  30  31  37  38  41  42  43  44  45  46  47  48 0
 3-21G
 ****


