%nproc=1
%NoSave
%Mem=1900MB
#P OB98/GEN NMR

erre ene a

0 1
  C     -805.215    2009.895    1314.820
  O     -804.191    2008.918    1314.635
  P     -804.561    2007.413    1315.057
  C     -802.830    2007.243    1317.037
  O     -803.226    2006.798    1315.754
  C     -801.939    2006.218    1317.717
  O     -802.649    2005.006    1317.924
  C     -800.682    2005.836    1316.904
  O     -799.687    2006.827    1316.938
  C     -800.328    2004.519    1317.589
  O     -799.615    2004.816    1318.829
  C     -801.706    2003.918    1317.916
  N     -801.247    1999.034    1316.363
  C     -800.664    1999.723    1317.364
  N     -800.807    2001.022    1317.729
  C     -801.675    2001.605    1316.876
  C     -802.354    2001.057    1315.779
  C     -802.106    1999.735    1315.509
  N     -802.687    1999.014    1314.492
  N     -803.129    2002.019    1315.155
  C     -802.936    2003.117    1315.860
  N     -802.118    2002.930    1316.893
  O     -804.626    2006.652    1313.659
  O     -805.816    2007.229    1315.877
  H     -800.247    2005.274    1319.434
  H     -805.317    2005.939    1313.664
  H     -800.003    1999.156    1317.995
  H     -803.447    2004.081    1315.644
  H     -801.712    2003.424    1318.887
  H     -799.647    2003.881    1316.970
  H     -800.977    2005.600    1315.847
  H     -801.616    2006.671    1318.686
  H     -803.727    2007.421    1317.641
  H     -802.335    1998.095    1314.284
  H     -803.210    1999.553    1313.813
  H     -802.318    2008.227    1316.920
  P     -799.441    2007.681    1315.604
  C     -797.094    2008.074    1316.581
  O     -798.224    2008.634    1315.970
  O     -800.729    2008.639    1315.579
  O     -799.234    2006.842    1314.373
  H     -800.827    2009.102    1316.441
  H     -796.341    2008.841    1316.757
  H     -796.680    2007.282    1315.914
  H     -797.358    2007.622    1317.544
  H     -804.855    2010.853    1314.506
  H     -805.485    2009.937    1315.854
  H     -806.072    2009.628    1314.238

 3  4  5  6  7  8  9  10  11  12  22  25  29  30  31  32 0
 6-311+G(2d,p)
 ****
 33  36  37 0
 6-311+G(2d,p)
 ****
 1  2  13  14  15  16  17  18  19  20  21  23  24  26 0
 3-21G
 ****
 27  28  34  35  38  39  40  41  42  43  44  45  46  47  48 0
 3-21G
 ****


