%nproc=1
%NoSave
%Mem=1900MB
#P OB98/GEN NMR

erre ene a

0 1
  C      -46.960      78.615     -36.189
  O      -47.082      77.232     -36.535
  P      -48.546      76.724     -36.970
  C      -50.180      77.739     -38.723
  O      -48.851      77.333     -38.423
  C      -50.606      77.220     -40.094
  O      -49.723      77.694     -41.126
  C      -50.586      75.703     -40.221
  O      -51.739      75.111     -39.642
  C      -50.596      75.534     -41.734
  O      -51.942      75.638     -42.230
  C      -49.754      76.730     -42.207
  N      -46.794      73.515     -44.773
  C      -48.171      73.559     -44.668
  N      -48.856      72.629     -45.368
  N      -48.816      74.433     -43.943
  C      -48.002      75.321     -43.322
  C      -46.629      75.380     -43.347
  C      -45.924      74.385     -44.128
  O      -44.707      74.282     -44.230
  N      -46.157      76.427     -42.598
  C      -47.243      77.018     -42.143
  N      -48.390      76.375     -42.544
  O      -49.514      77.561     -36.008
  O      -48.745      75.253     -36.824
  H      -52.434      74.863     -41.891
  H      -50.347      77.072     -35.866
  H      -46.349      72.815     -45.340
  H      -47.255      77.910     -41.529
  H      -50.204      77.227     -43.073
  H      -50.216      74.559     -42.053
  H      -48.427      71.973     -46.002
  H      -49.660      75.287     -39.806
  H      -49.868      72.669     -45.332
  H      -51.617      77.598     -40.300
  H      -50.245      78.830     -38.713
  H      -50.849      77.374     -37.938
  P      -51.508      74.097     -38.420
  C      -51.016      74.411     -35.892
  O      -51.133      75.017     -37.164
  O      -50.130      73.379     -38.801
  O      -52.613      73.117     -38.212
  H      -50.101      72.480     -38.422
  H      -50.473      73.464     -35.953
  H      -52.011      74.238     -35.475
  H      -50.468      75.088     -35.230
  H      -45.946      78.827     -35.920
  H      -47.602      78.834     -35.361
  H      -47.241      79.218     -37.027

 3  4  5  6  7  8  9  10  11  12  23  26  30  31  33  0
 6-311+G(2d,p)
 ****
 35  36  37  38 0
 6-311+G(2d,p)
 ****
 1  2  13  14  15  16  17  18  19  20  21  22  24  25  27  28  29 0
 3-21G
 ****
 32  34  39  40  41  42  43  44  45  46  47  48  49 0
 3-21G
 ****


