%nproc=1
%NoSave
%Mem=1900MB
#P OB98/GEN NMR

erre ene a

0 1
  C      -70.155    -133.814      59.808
  O      -70.660    -135.108      60.056
  H      -70.997    -133.136      59.650
  H      -69.538    -133.824      58.905
  H      -69.566    -133.449      60.652
  P      -69.671    -136.224      60.636
  C      -70.756    -136.486      62.963
  O      -69.628    -136.036      62.228
  C      -70.318    -137.219      64.237
  O      -69.687    -136.269      65.133
  C      -71.518    -137.809      64.986
  O      -71.164    -138.961      65.746
  C      -71.902    -136.688      65.938
  O      -72.636    -137.145      67.074
  C      -70.536    -136.100      66.280
  N      -71.000    -132.705      70.053
  C      -71.196    -134.071      70.080
  N      -71.559    -134.603      71.271
  N      -71.069    -134.843      69.032
  C      -70.771    -134.167      67.897
  C      -70.577    -132.813      67.739
  C      -70.686    -131.974      68.915
  O      -70.546    -130.757      68.942
  N      -70.300    -132.495      66.433
  C      -70.332    -133.650      65.801
  N      -70.589    -134.698      66.651
  O      -68.221    -135.711      60.189
  O      -69.928    -137.623      60.166
  H      -72.685    -136.404      67.707
  H      -67.589    -136.453      60.173
  H      -71.082    -132.161      70.894
  H      -70.162    -133.785      64.740
  H      -70.079    -136.644      67.117
  H      -72.545    -135.987      65.400
  H      -71.857    -134.024      72.041
  H      -72.344    -138.060      64.325
  H      -72.003    -135.525      71.238
  H      -69.564    -137.976      63.995
  H      -71.317    -137.157      62.308
  H      -71.411    -135.648      63.206
  P      -70.824    -140.318      64.966
  C      -68.201    -140.006      64.817
  O      -69.447    -140.159      64.175
  O      -71.925    -140.377      63.810
  O      -70.846    -141.545      65.824
  H      -72.514    -141.143      63.939
  H      -67.429    -139.919      64.081
  H      -68.011    -140.859      65.434
  H      -68.218    -139.124      65.423

 6  7  8  9  10  11  12  13  14  15  26  29  33  34 0
 6-311+G(2d,p)
 ****
 36  38  39  40  41 0
 6-311+G(2d,p)
 ****
 1  2  3  4  5  16  17  18  19  20  21  22  23  24  25 0
 3-21G
 ****
 27  28  30  31  32  35  37  42  43  44  45  46  47 0
 3-21G
 ****
 48  49 0
 3-21G
 ****


