%nproc=1
%NoSave
%Mem=1900MB
#P OB98/GEN NMR

erre ene a

0 1
  C       49.655     -39.315    -510.852
  O       49.312     -37.945    -510.879
  H       48.752     -39.910    -511.019
  H       50.075     -39.578    -509.879
  H       50.377     -39.540    -511.644
  P       50.500     -36.893    -510.651
  C       51.904     -36.146    -508.596
  O       51.000     -37.107    -509.138
  C       52.844     -36.812    -507.590
  O       52.114     -37.080    -506.361
  C       53.437     -38.143    -508.079
  O       54.796     -38.238    -507.625
  C       52.600     -39.179    -507.348
  O       53.278     -40.426    -507.226
  C       52.354     -38.461    -506.023
  N       51.085     -40.819    -501.760
  C       52.300     -40.322    -502.179
  N       53.348     -40.482    -501.342
  N       52.482     -39.728    -503.328
  C       51.345     -39.613    -504.059
  C       50.082     -40.073    -503.758
  C       49.904     -40.751    -502.493
  O       48.851     -41.231    -502.078
  N       49.204     -39.789    -504.779
  C       49.935     -39.162    -505.689
  N       51.234     -39.032    -505.291
  O       49.747     -35.481    -510.591
  O       51.583     -36.912    -511.680
  H       52.712     -41.026    -506.693
  H       50.324     -34.764    -510.922
  H       50.999     -41.280    -500.869
  H       49.566     -38.793    -506.637
  H       53.224     -38.503    -505.357
  H       51.657     -39.345    -507.884
  H       53.276     -40.903    -500.427
  H       53.403     -38.266    -509.162
  H       54.251     -40.115    -501.621
  H       53.637     -36.097    -507.333
  H       51.325     -35.363    -508.094
  H       52.484     -35.699    -509.412
  P       55.912     -38.623    -508.705
  C       57.385     -40.693    -509.244
  O       56.232     -40.194    -508.579
  O       57.237     -37.922    -508.123
  O       55.617     -38.137    -510.085
  H       57.476     -37.157    -508.668
  H       57.468     -41.746    -509.072
  H       58.256     -40.200    -508.866
  H       57.298     -40.509    -510.295

 6  7  8  9  10  11  12  13  14  15  26  29  33  34 0
 6-311+G(2d,p)
 ****
 36  38  39  40  41 0
 6-311+G(2d,p)
 ****
 1  2  3  4  5  16  17  18  19  20  21  22  23  24  25 0
 3-21G
 ****
 27  28  30  31  32  35  37  42  43  44  45  46  47 0
 3-21G
 ****
 48  49 0
 3-21G
 ****


