%nproc=1
%NoSave
%Mem=1900MB
#P OB98/GEN NMR

erre ene a

0 1
  C      138.541    -182.779    -195.805
  O      138.240    -181.390    -195.678
  P      137.985    -180.531    -197.006
  C      140.417    -179.814    -197.460
  O      139.312    -180.592    -197.907
  C      141.554    -179.847    -198.486
  O      141.981    -181.195    -198.763
  C      141.160    -179.265    -199.834
  O      141.090    -177.852    -199.777
  C      142.256    -179.827    -200.730
  O      143.448    -179.031    -200.645
  C      142.504    -181.219    -200.108
  N      141.924    -182.307    -200.883
  C      141.944    -182.150    -202.272
  O      142.400    -181.120    -202.773
  N      141.435    -183.154    -203.055
  C      140.943    -184.219    -202.501
  N      140.456    -185.185    -203.325
  C      140.891    -184.419    -201.038
  C      141.384    -183.429    -200.298
  O      137.420    -179.166    -196.793
  O      136.963    -181.454    -197.833
  H      144.071    -179.410    -201.296
  H      136.390    -180.880    -198.379
  H      140.474    -185.326    -200.623
  H      141.383    -183.489    -199.215
  H      143.578    -181.408    -200.018
  H      141.950    -179.842    -201.782
  H      140.190    -179.672    -200.142
  H      142.401    -179.286    -198.072
  H      140.493    -185.019    -204.322
  H      140.771    -180.200    -196.500
  H      140.098    -186.068    -202.990
  H      140.078    -178.786    -197.283
  P      139.657    -177.169    -199.987
  C      139.870    -176.457    -202.472
  O      139.265    -177.321    -201.529
  O      139.978    -175.605    -199.841
  O      138.608    -177.598    -199.012
  H      139.220    -175.152    -199.429
  H      139.748    -176.884    -203.470
  H      140.937    -176.335    -202.270
  H      139.377    -175.483    -202.444
  H      138.682    -183.204    -194.833
  H      139.435    -182.899    -196.380
  H      137.731    -183.276    -196.297

 3  4  5  6  7  8  9  10  11  12  13  23  27  28  29  30  32 0
 6-311+G(2d,p)
 ****
 34  35 0
 6-311+G(2d,p)
 ****
 1  2  14  15  16  17  18  19  20  21  22  24  25  26 0
 3-21G
 ****
 31  33  36  37  38  39  40  41  42  43  44  45  46 0
 3-21G
 ****


