%nproc=1
%NoSave
%Mem=1900MB
#P OB98/GEN NMR

erre ene a

0 1
  C     -491.209    -388.642     274.437
  O     -492.445    -387.983     274.255
  H     -491.204    -389.188     275.385
  H     -491.065    -389.360     273.623
  H     -490.384    -387.923     274.420
  P     -492.843    -386.876     275.343
  C     -494.061    -384.581     275.231
  O     -493.453    -385.643     274.511
  C     -493.389    -383.261     274.857
  O     -491.990    -383.297     275.216
  C     -493.429    -382.936     273.368
  O     -494.678    -382.379     272.973
  C     -492.311    -381.917     273.276
  O     -492.771    -380.644     273.774
  C     -491.265    -382.511     274.225
  N     -486.755    -382.648     271.814
  C     -487.458    -381.628     272.345
  N     -488.655    -381.679     272.964
  C     -489.121    -382.935     273.009
  C     -488.516    -384.072     272.504
  C     -487.266    -383.895     271.884
  N     -486.545    -384.932     271.324
  N     -489.314    -385.186     272.706
  C     -490.366    -384.728     273.360
  N     -490.300    -383.369     273.559
  O     -491.429    -386.309     275.842
  O     -493.703    -387.351     276.469
  H     -493.517    -380.370     273.205
  H     -491.531    -385.883     276.713
  H     -487.005    -380.648     272.264
  H     -491.191    -385.328     273.703
  H     -490.697    -381.744     274.764
  H     -491.967    -381.751     272.253
  H     -493.171    -383.813     272.759
  H     -493.867    -382.464     275.442
  H     -493.935    -384.756     276.306
  H     -485.765    -384.676     270.750
  H     -486.993    -385.835     271.243
  H     -495.129    -384.548     274.994
  P     -495.137    -382.607     271.454
  C     -497.424    -382.388     270.240
  O     -496.734    -382.582     271.467
  O     -494.787    -384.152     271.193
  O     -494.477    -381.707     270.458
  H     -494.627    -384.316     270.247
  H     -498.479    -382.397     270.419
  H     -497.171    -383.175     269.560
  H     -497.142    -381.447     269.817

 6  7  8  9  10  11  12  13  14  15  25  28  32  33  34  35 0
 6-311+G(2d,p)
 ****
 36  39  40 0
 6-311+G(2d,p)
 ****
 1  2  3  4  5  16  17  18  19  20  21  22  23  24 0
 3-21G
 ****
 26  27  29  30  31  37  38  41  42  43  44  45  46  47 0
 3-21G
 ****
 48 0
 3-21G
 ****


