%nproc=1
%NoSave
%Mem=1900MB
#P OB98/GEN NMR

erre ene a

0 1
  C      346.453    1211.960    -613.058
  O      345.069    1211.934    -612.727
  P      344.104    1210.682    -612.926
  C      343.614    1210.346    -610.380
  O      344.135    1209.812    -611.585
  C      344.017    1209.527    -609.139
  O      345.459    1209.341    -609.108
  C      343.659    1210.284    -607.845
  O      342.348    1210.207    -607.333
  C      344.745    1209.898    -606.847
  O      344.371    1208.786    -606.039
  C      345.926    1209.500    -607.761
  N      349.377    1211.935    -604.868
  C      348.365    1211.067    -604.474
  N      348.219    1210.851    -603.156
  N      347.567    1210.473    -605.330
  C      347.750    1210.851    -606.615
  C      348.711    1211.707    -607.123
  C      349.639    1212.317    -606.183
  O      350.553    1213.072    -606.464
  N      348.584    1211.860    -608.461
  C      347.555    1211.117    -608.797
  N      347.012    1210.465    -607.691
  O      344.257    1209.950    -614.221
  O      342.626    1211.350    -612.917
  H      343.571    1209.017    -605.559
  H      342.081    1210.816    -613.523
  H      349.983    1212.334    -604.173
  H      347.156    1210.981    -609.789
  H      346.343    1208.532    -607.471
  H      344.958    1210.725    -606.179
  H      348.734    1211.356    -602.464
  H      343.827    1211.354    -608.059
  H      347.364    1210.387    -602.868
  H      343.595    1208.519    -609.178
  H      342.518    1210.367    -610.480
  H      343.933    1211.387    -610.258
  P      341.059    1210.997    -607.878
  C      340.244    1209.044    -609.326
  O      340.667    1210.389    -609.302
  O      341.627    1212.443    -608.255
  O      339.921    1211.088    -606.915
  H      340.883    1213.076    -608.351
  H      340.301    1208.649    -610.352
  H      339.185    1209.005    -608.989
  H      340.861    1208.409    -608.654
  H      346.858    1212.922    -612.822
  H      346.573    1211.769    -614.104
  H      346.968    1211.209    -612.497

 3  4  5  6  7  8  9  10  11  12  23  26  30  31 0
 6-311+G(2d,p)
 ****
 33  35  36  37  38 0
 6-311+G(2d,p)
 ****
 1  2  13  14  15  16  17  18  19  20  21  22  24  25 0
 3-21G
 ****
 27  28  29  32  34  39  40  41  42  43  44  45  46  47  48  49 0
 3-21G
 ****


