%nproc=1
%NoSave
%Mem=1900MB
#P OB98/GEN NMR

erre ene a

0 1
  C      779.091     339.141     428.100
  O      778.429     338.686     429.262
  H      779.631     340.060     428.336
  H      778.358     339.355     427.313
  H      779.802     338.389     427.748
  P      777.767     337.230     429.182
  C      775.271     336.425     429.105
  O      776.221     337.424     428.769
  C      773.857     336.940     428.842
  O      773.535     338.028     429.732
  C      773.657     337.536     427.461
  O      773.615     336.557     426.443
  C      772.328     338.256     427.651
  O      771.213     337.375     427.475
  C      772.427     338.731     429.124
  N      772.570     340.171     429.218
  C      771.392     340.875     429.550
  O      770.348     340.259     429.746
  N      771.431     342.240     429.597
  C      772.548     342.858     429.314
  N      772.505     344.223     429.344
  C      773.799     342.161     428.968
  C      773.740     340.834     428.939
  O      777.683     336.808     430.724
  O      778.500     336.255     428.319
  H      770.427     337.858     427.812
  H      777.291     337.485     431.297
  H      774.690     342.729     428.755
  H      774.615     340.245     428.688
  H      771.526     338.438     429.676
  H      772.206     339.072     426.936
  H      774.429     338.285     427.255
  H      773.149     336.113     429.029
  H      771.612     344.655     429.542
  H      775.378     336.123     430.150
  H      773.280     344.809     429.072
  H      775.479     335.545     428.486
  P      774.616     336.600     425.198
  C      774.893     338.091     423.109
  O      774.307     337.968     424.406
  O      774.628     335.388     424.332
  O      776.029     336.936     425.882
  H      776.056     337.763     426.382
  H      774.620     339.034     422.682
  H      774.539     337.300     422.481
  H      775.958     338.032     423.192

 6  7  8  9  10  11  12  13  14  15  16  26  30  31  32  33  35 0
 6-311+G(2d,p)
 ****
 37  38 0
 6-311+G(2d,p)
 ****
 1  2  3  4  5  17  18  19  20  21  22  23  24  25 0
 3-21G
 ****
 27  28  29  34  36  39  40  41  42  43  44  45  46 0
 3-21G
 ****


