%nproc=1
%NoSave
%Mem=1900MB
#P OB98/GEN NMR

erre ene a

0 1
  C       33.598    -128.345      51.018
  O       34.394    -127.902      49.937
  H       33.961    -129.324      51.339
  H       32.552    -128.442      50.714
  H       33.678    -127.651      51.859
  P       33.988    -126.531      49.205
  C       32.555    -127.823      47.476
  O       33.671    -126.973      47.691
  C       32.610    -128.422      46.071
  O       31.530    -129.356      45.863
  C       32.474    -127.411      44.936
  O       33.639    -126.626      44.734
  C       32.198    -128.353      43.774
  O       33.422    -128.992      43.372
  C       31.236    -129.373      44.437
  N       29.827    -129.061      44.202
  C       29.370    -129.176      42.883
  O       30.136    -129.525      41.986
  N       28.063    -128.858      42.603
  C       27.282    -128.442      43.554
  N       26.011    -128.095      43.216
  C       27.716    -128.323      44.961
  C       28.986    -128.636      45.209
  O       34.948    -125.394      49.351
  O       32.522    -126.202      49.757
  H       33.682    -129.592      44.092
  H       32.231    -125.354      49.342
  H       27.029    -127.962      45.713
  H       29.384    -128.560      46.218
  H       31.438    -130.388      44.078
  H       31.790    -127.849      42.896
  H       31.595    -126.775      45.084
  H       33.547    -128.993      45.993
  H       25.761    -128.150      42.237
  H       31.644    -127.231      47.614
  H       25.443    -127.512      43.822
  H       32.560    -128.644      48.200
  P       33.482    -125.030      44.759
  C       32.542    -124.939      42.327
  O       33.557    -124.536      43.231
  O       34.870    -124.543      45.381
  O       32.297    -124.504      45.507
  H       34.797    -124.420      46.350
  H       32.741    -124.527      41.360
  H       31.594    -124.588      42.676
  H       32.525    -126.007      42.263

 6  7  8  9  10  11  12  13  14  15  16  26  30  31  32  33  35 0
 6-311+G(2d,p)
 ****
 37  38 0
 6-311+G(2d,p)
 ****
 1  2  3  4  5  17  18  19  20  21  22  23  24  25 0
 3-21G
 ****
 27  28  29  34  36  39  40  41  42  43  44  45  46 0
 3-21G
 ****


