%nproc=1
%NoSave
%Mem=1900MB
#P OB98/GEN NMR

erre ene a

0 1
  C      337.704     288.790    -202.434
  O      337.900     289.788    -201.445
  P      337.209     289.568    -200.011
  C      338.935     287.654    -199.627
  O      337.585     288.080    -199.540
  C      339.350     286.914    -198.355
  O      340.648     286.301    -198.575
  C      339.472     287.799    -197.105
  O      339.110     286.990    -195.982
  C      340.960     288.109    -197.053
  O      341.396     288.500    -195.758
  C      341.540     286.791    -197.554
  N      346.484     286.121    -196.709
  C      345.406     285.922    -195.865
  N      345.689     285.418    -194.643
  N      344.166     286.193    -196.185
  C      344.040     286.674    -197.446
  C      345.030     286.952    -198.360
  C      346.388     286.614    -198.004
  O      347.365     286.692    -198.751
  N      344.519     287.518    -199.497
  C      343.216     287.506    -199.301
  N      342.873     286.963    -198.092
  O      335.654     289.467    -200.377
  O      337.491     290.622    -198.987
  H      341.174     287.772    -195.137
  H      335.217     290.336    -200.294
  H      347.416     285.878    -196.409
  H      342.473     287.872    -199.999
  H      341.600     286.028    -196.761
  H      341.192     288.928    -197.749
  H      346.615     285.160    -194.336
  H      338.856     288.700    -197.148
  H      344.914     285.233    -194.015
  H      338.632     286.102    -198.177
  H      339.578     288.532    -199.746
  H      339.063     287.015    -200.509
  P      338.238     287.670    -194.823
  C      335.874     287.561    -195.884
  O      336.976     288.371    -195.511
  O      339.147     288.913    -194.373
  O      337.941     286.781    -193.657
  H      339.015     289.087    -193.424
  H      334.983     288.189    -195.955
  H      335.695     286.773    -195.151
  H      336.069     287.107    -196.860
  H      338.219     289.069    -203.330
  H      336.658     288.692    -202.639
  H      338.087     287.856    -202.079

 3  4  5  6  7  8  9  10  11  12  23  26  30  31 0
 6-311+G(2d,p)
 ****
 33  35  36  37  38 0
 6-311+G(2d,p)
 ****
 1  2  13  14  15  16  17  18  19  20  21  22  24  25 0
 3-21G
 ****
 27  28  29  32  34  39  40  41  42  43  44  45  46  47  48  49 0
 3-21G
 ****


