%nproc=1
%NoSave
%Mem=1900MB
#P OB98/GEN NMR

erre ene a

0 1
  C      -63.189     -14.367     307.212
  O      -62.550     -14.301     305.948
  P      -62.543     -15.630     305.045
  C      -64.321     -14.558     303.479
  O      -63.054     -15.190     303.590
  C      -64.248     -13.401     302.485
  O      -63.736     -12.212     303.119
  C      -63.325     -13.653     301.301
  O      -63.940     -14.436     300.292
  C      -63.091     -12.237     300.806
  O      -64.211     -11.801     300.012
  C      -63.026     -11.443     302.117
  N      -58.829      -8.742     301.293
  C      -60.096      -8.587     300.769
  N      -60.252      -7.609     299.851
  N      -61.123      -9.319     301.114
  C      -60.817     -10.266     302.037
  C      -59.598     -10.515     302.632
  C      -58.470      -9.704     302.230
  O      -57.314      -9.827     302.617
  N      -59.681     -11.547     303.525
  C      -60.944     -11.927     303.478
  N      -61.663     -11.206     302.557
  O      -63.770     -16.477     305.625
  O      -61.263     -16.397     305.077
  H      -64.105     -10.837     299.886
  H      -63.695     -17.410     305.343
  H      -58.069      -8.154     300.987
  H      -61.376     -12.720     304.072
  H      -63.529     -10.473     302.034
  H      -62.203     -12.147     300.176
  H      -59.489      -7.049     299.496
  H      -62.371     -14.086     301.627
  H      -61.157      -7.511     299.403
  H      -65.269     -13.188     302.138
  H      -64.623     -14.182     304.459
  H      -65.064     -15.292     303.150
  P      -62.986     -15.425     299.460
  C      -62.295     -17.136     301.288
  O      -63.123     -16.852     300.177
  O      -61.519     -14.931     299.862
  O      -63.210     -15.403     297.985
  H      -60.882     -15.143     299.152
  H      -62.696     -18.015     301.807
  H      -62.272     -16.299     301.989
  H      -61.280     -17.362     300.948
  H      -63.116     -13.417     307.698
  H      -62.713     -15.113     307.814
  H      -64.220     -14.621     307.078

 3  4  5  6  7  8  9  10  11  12  23  26  30  31 0
 6-311+G(2d,p)
 ****
 33  35  36  37  38 0
 6-311+G(2d,p)
 ****
 1  2  13  14  15  16  17  18  19  20  21  22  24  25 0
 3-21G
 ****
 27  28  29  32  34  39  40  41  42  43  44  45  46  47  48  49 0
 3-21G
 ****


