%nproc=1
%NoSave
%Mem=1900MB
#P OB98/GEN NMR

erre ene a

0 1
  C       35.572     -86.913     129.245
  O       34.829     -86.405     130.336
  H       36.280     -87.670     129.592
  H       34.881     -87.375     128.535
  H       36.107     -86.103     128.741
  P       35.663     -85.655     131.484
  C       35.474     -87.843     132.868
  O       36.320     -86.810     132.386
  C       36.311     -88.963     133.482
  O       37.360     -89.355     132.573
  C       37.014     -88.592     134.785
  O       36.132     -88.662     135.896
  C       38.077     -89.678     134.850
  O       37.491     -90.906     135.326
  C       38.477     -89.824     133.373
  N       43.593     -89.757     133.446
  C       42.699     -90.701     133.808
  N       41.352     -90.655     133.740
  C       40.946     -89.486     133.216
  C       41.737     -88.436     132.780
  C       43.127     -88.597     132.915
  N       44.031     -87.594     132.604
  N       40.957     -87.394     132.317
  C       39.717     -87.803     132.489
  N       39.660     -89.061     133.022
  O       34.510     -85.049     132.421
  O       36.599     -84.597     131.002
  H       38.232     -91.496     135.563
  H       34.360     -84.115     132.180
  H       43.119     -91.617     134.211
  H       38.837     -87.222     132.248
  H       38.657     -90.869     133.095
  H       38.903     -89.432     135.525
  H       37.504     -87.615     134.715
  H       35.655     -89.832     133.626
  H       34.881     -88.247     132.041
  H       44.885     -87.632     133.154
  H       43.613     -86.680     132.473
  H       34.798     -87.421     133.618
  P       36.305     -87.561     137.052
  C       37.663     -89.179     138.546
  O       37.649     -87.940     137.847
  O       35.136     -87.940     138.079
  O       36.194     -86.144     136.606
  H       34.562     -87.164     138.225
  H       38.610     -89.306     139.028
  H       37.504     -89.980     137.855
  H       36.885     -89.183     139.281

 6  7  8  9  10  11  12  13  14  15  25  28  32  33  34  35 0
 6-311+G(2d,p)
 ****
 36  39  40 0
 6-311+G(2d,p)
 ****
 1  2  3  4  5  16  17  18  19  20  21  22  23  24 0
 3-21G
 ****
 26  27  29  30  31  37  38  41  42  43  44  45  46  47  48 0
 3-21G
 ****


