%nproc=1
%NoSave
%Mem=1900MB
#P OB98/GEN NMR

erre ene a

0 1
  C     -314.915      71.569     979.398
  O     -315.729      72.047     980.453
  H     -315.449      71.625     978.454
  H     -314.022      72.197     979.326
  H     -314.606      70.536     979.592
  P     -317.117      71.286     980.699
  C     -316.488      70.186     982.966
  O     -317.292      71.144     982.295
  C     -316.419      70.517     984.455
  O     -315.600      71.705     984.642
  C     -317.791      70.780     985.125
  O     -317.993      69.877     986.210
  C     -317.669      72.198     985.682
  O     -318.266      72.344     986.965
  C     -316.164      72.434     985.731
  N     -315.372      76.677     988.439
  C     -315.284      75.377     988.789
  N     -315.408      74.287     987.991
  C     -315.615      74.656     986.706
  C     -315.698      75.945     986.201
  C     -315.584      77.000     987.134
  N     -315.714      78.334     986.809
  N     -315.916      75.921     984.828
  C     -316.002      74.650     984.531
  N     -315.849      73.843     985.627
  O     -316.802      69.782     980.216
  O     -318.292      71.857     979.974
  H     -317.884      71.651     987.546
  H     -317.518      69.472     979.634
  H     -315.110      75.167     989.836
  H     -316.235      74.259     983.547
  H     -315.718      72.049     986.663
  H     -318.162      72.898     984.995
  H     -318.622      70.705     984.406
  H     -315.908      69.687     984.978
  H     -315.471      70.205     982.553
  H     -315.746      78.996     987.546
  H     -315.993      78.556     985.846
  H     -316.906      69.187     982.811
  P     -319.513      69.733     986.752
  C     -319.534      67.159     986.286
  O     -319.696      68.199     987.248
  O     -320.381      69.788     985.409
  O     -319.914      70.793     987.721
  H     -321.272      70.126     985.595
  H     -319.684      66.210     986.758
  H     -318.546      67.202     985.877
  H     -320.251      67.284     985.501

 6  7  8  9  10  11  12  13  14  15  25  28  32  33  34  35 0
 6-311+G(2d,p)
 ****
 36  39  40 0
 6-311+G(2d,p)
 ****
 1  2  3  4  5  16  17  18  19  20  21  22  23  24 0
 3-21G
 ****
 26  27  29  30  31  37  38  41  42  43  44  45  46  47  48 0
 3-21G
 ****


