%nproc=1
%NoSave
%Mem=1900MB
#P OB98/GEN NMR

erre ene a

0 1
  C      158.929    -226.059     455.279
  O      159.014    -226.225     453.877
  H      159.256    -225.047     455.531
  H      159.579    -226.777     455.786
  H      157.895    -226.189     455.610
  P      158.610    -227.666     453.298
  C      157.838    -226.487     451.126
  O      158.667    -227.486     451.705
  C      157.641    -226.754     449.636
  O      157.072    -228.057     449.433
  C      156.710    -225.767     448.939
  O      157.416    -224.593     448.575
  C      156.302    -226.572     447.713
  O      157.336    -226.487     446.713
  C      156.218    -228.006     448.261
  N      152.091    -230.669     446.767
  C      153.187    -230.262     446.091
  N      154.218    -229.509     446.534
  C      154.046    -229.185     447.828
  C      152.979    -229.526     448.644
  C      151.967    -230.310     448.065
  N      150.850    -230.723     448.759
  N      153.142    -229.008     449.911
  C      154.319    -228.417     449.878
  N      154.890    -228.463     448.630
  O      157.356    -228.256     453.849
  O      159.943    -228.499     453.598
  H      157.239    -225.621     446.276
  H      160.733    -227.962     453.414
  H      153.242    -230.577     445.052
  H      154.811    -227.957     450.729
  H      156.609    -228.737     447.541
  H      155.385    -226.201     447.254
  H      155.820    -225.552     449.541
  H      158.632    -226.755     449.161
  H      158.286    -225.497     451.268
  H      150.092    -231.112     448.219
  H      150.701    -230.345     449.683
  H      156.876    -226.510     451.648
  P      156.663    -223.181     448.435
  C      158.966    -222.202     449.016
  O      157.827    -222.114     448.168
  O      155.735    -222.864     449.557
  O      155.923    -223.269     447.022
  H      155.230    -222.581     446.965
  H      159.671    -221.444     448.745
  H      159.418    -223.166     448.907
  H      158.665    -222.062     450.033

 6  7  8  9  10  11  12  13  14  15  25  28  32  33  34  35 0
 6-311+G(2d,p)
 ****
 36  39  40 0
 6-311+G(2d,p)
 ****
 1  2  3  4  5  16  17  18  19  20  21  22  23  24 0
 3-21G
 ****
 26  27  29  30  31  37  38  41  42  43  44  45  46  47 0
 3-21G
 ****
 48 0
 3-21G
 ****


