%nproc=1
%NoSave
%Mem=1900MB
#P OB98/GEN NMR

erre ene a

0 1
  C      606.091    -368.351      41.410
  O      607.204    -368.203      42.269
  H      605.182    -368.098      41.969
  H      606.017    -369.387      41.065
  H      606.178    -367.678      40.553
  P      608.655    -368.353      41.606
  C      608.258    -370.805      40.759
  O      609.005    -369.921      41.582
  C      608.835    -372.219      40.845
  O      610.201    -372.252      40.368
  C      608.935    -372.752      42.267
  O      607.669    -373.072      42.816
  C      609.832    -373.966      42.040
  O      609.088    -375.064      41.501
  C      610.830    -373.409      40.987
  N      612.120    -373.075      41.570
  C      613.226    -373.775      41.048
  O      613.062    -374.595      40.155
  N      614.458    -373.528      41.585
  C      614.596    -372.654      42.526
  N      615.855    -372.464      43.022
  C      613.474    -371.878      43.082
  C      612.274    -372.137      42.562
  O      609.624    -367.791      42.750
  O      608.819    -367.689      40.276
  H      609.663    -375.851      41.585
  H      609.493    -368.220      43.611
  H      613.637    -371.144      43.863
  H      611.402    -371.618      42.919
  H      610.991    -374.142      40.191
  H      610.290    -374.315      42.967
  H      609.475    -372.051      42.901
  H      608.230    -372.871      40.203
  H      616.598    -373.029      42.630
  H      608.238    -370.459      39.721
  H      616.080    -371.836      43.774
  H      607.221    -370.799      41.126
  P      607.279    -372.590      44.291
  C      608.671    -374.276      45.646
  O      607.366    -373.885      45.227
  O      605.993    -371.828      44.388
  O      608.566    -371.748      44.755
  H      609.402    -372.255      44.779
  H      608.601    -375.148      46.262
  H      609.120    -373.480      46.203
  H      609.271    -374.493      44.787

 6  7  8  9  10  11  12  13  14  15  16  26  30  31  32  33  35 0
 6-311+G(2d,p)
 ****
 37  38 0
 6-311+G(2d,p)
 ****
 1  2  3  4  5  17  18  19  20  21  22  23  24  25 0
 3-21G
 ****
 27  28  29  34  36  39  40  41  42  43  44  45  46 0
 3-21G
 ****


