%nproc=1
%NoSave
%Mem=1900MB
#P OB98/GEN NMR

erre ene a

0 1
  C      859.933     777.739    -362.573
  O      859.758     779.130    -362.864
  P      860.977     780.182    -362.767
  C      860.656     781.185    -365.122
  O      861.525     780.473    -364.242
  C      861.424     781.807    -366.296
  O      862.371     782.782    -365.820
  C      862.222     780.805    -367.129
  O      861.375     780.107    -368.018
  C      863.237     781.734    -367.801
  O      862.652     782.383    -368.940
  C      863.531     782.755    -366.699
  N      868.583     783.485    -366.366
  C      867.651     783.955    -367.227
  N      866.320     783.707    -367.250
  C      865.978     782.904    -366.239
  C      866.816     782.335    -365.284
  C      868.174     782.654    -365.379
  N      869.132     782.154    -364.509
  N      866.093     781.535    -364.424
  C      864.837     781.634    -364.837
  N      864.715     782.450    -365.930
  O      862.033     779.802    -361.778
  O      860.284     781.572    -362.362
  H      862.676     781.754    -369.683
  H      860.911     782.121    -361.856
  H      868.027     784.631    -368.005
  H      864.005     781.132    -364.369
  H      863.645     783.758    -367.093
  H      864.130     781.195    -368.152
  H      862.746     780.106    -366.477
  H      860.700     782.344    -366.916
  H      860.169     781.979    -364.550
  H      870.087     782.415    -364.655
  H      868.851     781.504    -363.797
  H      859.903     780.495    -365.490
  P      861.164     778.528    -367.850
  C      858.639     778.821    -367.517
  O      859.841     778.308    -366.973
  O      862.368     777.762    -367.387
  O      860.699     778.061    -369.308
  H      860.988     777.126    -369.451
  H      858.579     779.902    -367.333
  H      857.793     778.331    -367.017
  H      858.584     778.633    -368.592
  H      859.001     777.228    -362.700
  H      860.268     777.625    -361.563
  H      860.661     777.324    -363.239

 3  4  5  6  7  8  9  10  11  12  22  25  29  30  31  32 0
 6-311+G(2d,p)
 ****
 33  36  37 0
 6-311+G(2d,p)
 ****
 1  2  13  14  15  16  17  18  19  20  21  23  24  26 0
 3-21G
 ****
 27  28  34  35  38  39  40  41  42  43  44  45  46  47  48 0
 3-21G
 ****


