%nproc=1
%NoSave
%Mem=1900MB
#P OB98/GEN NMR

erre ene a

0 1
  C      209.522    -199.509    -146.660
  O      209.160    -200.873    -146.559
  H      210.151    -199.248    -145.802
  H      208.631    -198.872    -146.649
  H      210.090    -199.341    -147.579
  P      208.201    -201.447    -147.709
  C      206.765    -202.686    -145.964
  O      206.794    -201.686    -146.974
  C      205.327    -203.151    -145.707
  O      204.641    -202.135    -144.930
  C      204.525    -203.372    -146.996
  O      203.675    -204.509    -146.821
  C      203.671    -202.123    -147.103
  O      202.478    -202.324    -147.852
  C      203.441    -201.767    -145.630
  N      199.934    -198.401    -144.082
  C      199.985    -199.747    -144.021
  N      200.966    -200.568    -144.442
  C      201.998    -199.858    -144.933
  C      202.096    -198.483    -145.063
  C      200.992    -197.732    -144.616
  N      200.922    -196.361    -144.696
  N      203.298    -198.129    -145.655
  C      203.923    -199.282    -145.863
  N      203.169    -200.352    -145.456
  O      208.732    -202.621    -148.464
  O      207.921    -200.139    -148.586
  H      201.890    -201.551    -147.714
  H      207.732    -199.365    -148.020
  H      199.112    -200.232    -143.578
  H      204.903    -199.386    -146.314
  H      202.594    -202.317    -145.200
  H      204.249    -201.327    -147.605
  H      205.158    -203.509    -147.870
  H      205.353    -204.056    -145.098
  H      207.193    -202.292    -145.027
  H      200.102    -195.905    -144.338
  H      201.709    -195.850    -145.070
  H      207.380    -203.519    -146.305
  P      204.327    -205.973    -146.976
  C      203.200    -206.569    -149.234
  O      204.428    -206.328    -148.543
  O      203.734    -207.037    -146.116
  O      205.858    -205.705    -146.594
  H      206.195    -206.480    -146.089
  H      203.406    -206.792    -150.260
  H      202.581    -205.698    -149.176
  H      202.694    -207.397    -148.784

 6  7  8  9  10  11  12  13  14  15  25  28  32  33  34  35 0
 6-311+G(2d,p)
 ****
 36  39  40 0
 6-311+G(2d,p)
 ****
 1  2  3  4  5  16  17  18  19  20  21  22  23  24 0
 3-21G
 ****
 26  27  29  30  31  37  38  41  42  43  44  45  46  47 0
 3-21G
 ****
 48 0
 3-21G
 ****


