%nproc=1
%NoSave
%Mem=1900MB
#P OB98/GEN NMR

erre ene a

0 1
  C     -223.088     -96.324     795.859
  O     -223.784     -96.349     794.629
  H     -222.018     -96.423     795.657
  H     -223.404     -97.155     796.497
  H     -223.260     -95.374     796.372
  P     -225.386     -96.336     794.657
  C     -225.386     -93.835     793.993
  O     -225.829     -94.818     794.920
  C     -225.403     -92.438     794.631
  O     -224.490     -92.429     795.763
  C     -224.957     -91.320     793.677
  O     -225.643     -90.121     794.071
  C     -223.476     -91.222     794.000
  O     -222.912     -90.039     793.489
  C     -223.516     -91.388     795.522
  N     -222.215     -91.717     796.084
  C     -221.289     -90.675     796.147
  O     -221.585     -89.552     795.728
  N     -220.038     -90.932     796.654
  C     -219.722     -92.139     797.001
  N     -218.463     -92.329     797.480
  C     -220.652     -93.282     796.893
  C     -221.871     -93.001     796.440
  O     -226.028     -97.339     795.555
  O     -225.803     -96.572     793.128
  H     -223.342     -89.248     793.884
  H     -226.120     -97.486     793.013
  H     -220.335     -94.272     797.181
  H     -222.626     -93.773     796.324
  H     -223.885     -90.476     796.007
  H     -222.928     -92.054     793.548
  H     -225.164     -91.543     792.627
  H     -226.406     -92.242     795.028
  H     -217.856     -91.520     797.521
  H     -226.069     -93.862     793.138
  H     -218.100     -93.230     797.760
  H     -224.374     -94.071     793.647
  P     -227.103     -89.737     793.538
  C     -228.337     -90.584     795.636
  O     -228.187     -90.694     794.223
  O     -227.206     -89.674     792.043
  O     -227.417     -88.303     794.173
  H     -227.990     -87.798     793.566
  H     -229.086     -91.271     795.970
  H     -228.631     -89.586     795.887
  H     -227.406     -90.812     796.112

 6  7  8  9  10  11  12  13  14  15  16  26  30  31  32  33  35 0
 6-311+G(2d,p)
 ****
 37  38 0
 6-311+G(2d,p)
 ****
 1  2  3  4  5  17  18  19  20  21  22  23  24  25 0
 3-21G
 ****
 27  28  29  34  36  39  40  41  42  43  44  45  46 0
 3-21G
 ****


