%nproc=1
%NoSave
%Mem=1900MB
#P OB98/GEN NMR

erre ene a

0 1
  C     -101.699     104.008    -189.180
  O     -101.250     104.782    -188.084
  H     -102.508     103.356    -188.839
  H     -100.890     103.385    -189.568
  H     -102.083     104.656    -189.973
  P     -100.054     105.819    -188.330
  C     -100.867     107.733    -186.798
  O     -100.692     107.278    -188.133
  C     -102.158     108.538    -186.684
  O     -103.294     107.715    -187.010
  C     -102.415     109.102    -185.287
  O     -101.664     110.290    -185.086
  C     -103.914     109.344    -185.362
  O     -104.177     110.537    -186.125
  C     -104.392     108.101    -186.134
  N     -108.133     105.043    -184.599
  C     -108.175     106.152    -185.425
  N     -109.394     106.521    -185.868
  N     -107.118     106.846    -185.764
  C     -105.979     106.399    -185.189
  C     -105.811     105.326    -184.344
  C     -106.979     104.534    -184.019
  O     -106.983     103.532    -183.306
  N     -104.515     105.224    -183.907
  C     -103.891     106.207    -184.521
  N     -104.737     106.964    -185.299
  O      -99.291     105.662    -189.611
  O      -99.119     105.648    -187.045
  H     -105.133     110.541    -186.317
  H      -98.414     104.994    -187.206
  H     -108.983     104.562    -184.360
  H     -102.831     106.419    -184.437
  H     -105.260     108.315    -186.769
  H     -104.376     109.476    -184.382
  H     -110.245     106.206    -185.416
  H     -102.222     108.358    -184.507
  H     -109.453     107.358    -186.431
  H     -102.119     109.343    -187.431
  H     -100.003     108.355    -186.544
  H     -100.903     106.881    -186.107
  P     -100.598     110.404    -183.889
  C      -98.806     111.374    -185.478
  O      -99.166     110.312    -184.604
  O     -100.800     109.431    -182.776
  O     -100.664     111.932    -183.437
  H     -101.347     112.108    -182.741
  H      -97.834     111.188    -185.884
  H      -98.795     112.295    -184.934
  H      -99.519     111.438    -186.274

 6  7  8  9  10  11  12  13  14  15  26  29  33  34 0
 6-311+G(2d,p)
 ****
 36  38  39  40  41 0
 6-311+G(2d,p)
 ****
 1  2  3  4  5  16  17  18  19  20  21  22  23  24  25 0
 3-21G
 ****
 27  28  30  31  32  35  37  42  43  44  45  46  47 0
 3-21G
 ****
 48  49 0
 3-21G
 ****


