%nproc=1
%NoSave
%Mem=1900MB
#P OB98/GEN NMR

erre ene a

0 1
  C      475.689     323.370    -196.799
  O      475.698     323.615    -198.192
  H      475.497     322.309    -196.603
  H      476.666     323.633    -196.383
  H      474.919     323.980    -196.314
  P      474.362     323.255    -199.000
  C      475.205     325.030    -200.715
  O      474.635     323.741    -200.508
  C      475.971     325.037    -202.030
  O      477.129     324.178    -201.939
  C      475.160     324.528    -203.221
  O      474.309     325.518    -203.775
  C      476.278     324.157    -204.189
  O      476.808     325.348    -204.795
  C      477.316     323.534    -203.233
  N      478.876     318.945    -204.895
  C      479.261     320.203    -205.218
  N      478.808     321.372    -204.719
  C      477.878     321.149    -203.773
  C      477.388     319.930    -203.343
  C      477.929     318.786    -203.945
  N      477.512     317.501    -203.643
  N      476.417     320.114    -202.373
  C      476.324     321.418    -202.222
  N      477.168     322.097    -203.072
  O      473.290     324.328    -198.472
  O      473.885     321.847    -198.886
  H      477.014     325.967    -204.071
  H      472.383     324.061    -198.726
  H      480.031     320.281    -205.987
  H      475.663     321.930    -201.529
  H      478.345     323.724    -203.549
  H      475.937     323.501    -204.996
  H      474.600     323.621    -202.960
  H      476.332     326.061    -202.219
  H      475.886     325.259    -199.884
  H      477.849     316.755    -204.235
  H      476.707     317.383    -203.045
  H      474.402     325.780    -200.738
  P      472.735     325.393    -203.493
  C      471.947     327.842    -203.844
  O      472.016     326.524    -204.369
  O      472.593     325.944    -201.987
  O      472.184     324.007    -203.631
  H      471.869     325.489    -201.514
  H      471.441     328.477    -204.541
  H      472.937     328.212    -203.678
  H      471.411     327.830    -202.918

 6  7  8  9  10  11  12  13  14  15  25  28  32  33  34  35 0
 6-311+G(2d,p)
 ****
 36  39  40 0
 6-311+G(2d,p)
 ****
 1  2  3  4  5  16  17  18  19  20  21  22  23  24 0
 3-21G
 ****
 26  27  29  30  31  37  38  41  42  43  44  45  46  47 0
 3-21G
 ****
 48 0
 3-21G
 ****


