%nproc=1
%NoSave
%Mem=1900MB
#P OB98/GEN NMR

erre ene a

0 1
  C     -139.640     240.379    -404.450
  O     -138.241     240.463    -404.604
  H     -139.953     239.347    -404.622
  H     -140.136     241.020    -405.184
  H     -139.936     240.674    -403.439
  P     -137.539     241.859    -404.242
  C     -135.421     241.262    -402.865
  O     -136.788     241.645    -402.839
  C     -135.188     240.060    -401.949
  O     -136.077     238.986    -402.353
  C     -133.755     239.523    -401.991
  O     -133.379     239.120    -400.672
  C     -133.854     238.301    -402.886
  O     -132.825     237.346    -402.628
  C     -135.276     237.813    -402.585
  N     -135.806     237.003    -403.678
  C     -136.013     235.646    -403.412
  O     -135.742     235.186    -402.302
  N     -136.463     234.834    -404.419
  C     -136.612     235.316    -405.616
  N     -137.031     234.452    -406.580
  C     -136.342     236.725    -405.958
  C     -135.954     237.505    -404.951
  O     -138.771     242.804    -403.858
  O     -136.686     242.445    -405.318
  H     -132.974     236.569    -403.209
  H     -138.590     243.734    -404.093
  H     -136.455     237.071    -406.974
  H     -135.724     238.552    -405.109
  H     -135.291     237.214    -401.666
  H     -133.770     238.608    -403.936
  H     -133.032     240.254    -402.368
  H     -135.469     240.342    -400.929
  H     -137.191     233.489    -406.309
  H     -134.811     242.100    -402.513
  H     -137.137     234.705    -407.551
  H     -135.129     241.021    -403.892
  P     -132.375     240.086    -399.880
  C     -133.525     240.082    -397.553
  O     -133.199     240.821    -398.720
  O     -132.076     241.252    -400.934
  O     -131.119     239.411    -399.435
  H     -131.166     241.173    -401.272
  H     -134.072     240.706    -396.877
  H     -132.626     239.746    -397.081
  H     -134.124     239.237    -397.822

 6  7  8  9  10  11  12  13  14  15  16  26  30  31  32  33  35 0
 6-311+G(2d,p)
 ****
 37  38 0
 6-311+G(2d,p)
 ****
 1  2  3  4  5  17  18  19  20  21  22  23  24  25 0
 3-21G
 ****
 27  28  29  34  36  39  40  41  42  43  44  45  46 0
 3-21G
 ****


