%nproc=1
%NoSave
%Mem=1900MB
#P OB98/GEN NMR

erre ene a

0 1
  C     -302.851    -466.332     102.042
  O     -303.640    -467.245     101.281
  P     -304.462    -468.392     102.043
  C     -302.658    -470.225     102.141
  O     -303.436    -469.297     102.887
  C     -302.896    -471.678     102.579
  O     -302.457    -471.886     103.946
  C     -304.367    -472.130     102.499
  O     -304.356    -473.508     102.107
  C     -304.822    -471.981     103.935
  O     -306.006    -472.719     104.203
  C     -303.572    -472.444     104.679
  N     -303.555    -472.025     106.079
  C     -303.898    -472.994     107.031
  O     -304.286    -474.100     106.671
  N     -303.812    -472.651     108.359
  C     -303.563    -471.426     108.699
  N     -303.469    -471.135     110.025
  C     -303.380    -470.337     107.704
  C     -303.362    -470.720     106.434
  O     -305.430    -469.157     101.204
  O     -305.231    -467.572     103.193
  H     -305.793    -473.684     104.190
  H     -306.106    -467.983     103.350
  H     -303.251    -469.316     108.034
  H     -303.229    -469.997     105.639
  H     -303.469    -473.534     104.639
  H     -305.027    -470.926     104.152
  H     -304.958    -471.553     101.783
  H     -302.276    -472.324     101.938
  H     -303.619    -471.883     110.689
  H     -301.597    -469.982     102.267
  H     -303.230    -470.211     110.365
  H     -302.878    -470.096     101.071
  P     -304.606    -473.874     100.564
  C     -307.076    -474.635     100.886
  O     -306.171    -473.736     100.265
  O     -304.416    -475.478     100.579
  O     -303.666    -473.266      99.580
  H     -304.153    -475.773      99.687
  H     -308.088    -474.223     100.811
  H     -306.840    -474.762     101.953
  H     -307.043    -475.598     100.383
  H     -302.373    -465.638     101.383
  H     -302.108    -466.873     102.590
  H     -303.480    -465.800     102.725

 3  4  5  6  7  8  9  10  11  12  13  23  27  28  29  30  32 0
 6-311+G(2d,p)
 ****
 34  35 0
 6-311+G(2d,p)
 ****
 1  2  14  15  16  17  18  19  20  21  22  24  25  26 0
 3-21G
 ****
 31  33  36  37  38  39  40  41  42  43  44  45  46 0
 3-21G
 ****


