%nproc=1
%NoSave
%Mem=1900MB
#P OB98/GEN NMR

erre ene a

0 1
  C     -522.630    -290.411     923.901
  O     -523.856    -290.656     924.586
  P     -523.930    -291.968     925.508
  C     -523.935    -293.904     923.762
  O     -524.696    -293.093     924.650
  C     -524.629    -295.258     923.577
  O     -524.435    -296.082     924.743
  C     -526.143    -295.172     923.381
  O     -526.469    -294.743     922.068
  C     -526.536    -296.617     923.695
  O     -526.279    -297.451     922.564
  C     -525.572    -296.971     924.849
  N     -528.411    -299.240     928.489
  C     -527.999    -299.659     927.259
  N     -527.258    -298.986     926.340
  C     -526.940    -297.762     926.788
  C     -527.301    -297.180     928.003
  C     -528.068    -297.985     928.879
  N     -528.471    -297.547     930.121
  N     -526.804    -295.903     928.107
  C     -526.147    -295.710     926.978
  N     -526.182    -296.801     926.156
  O     -524.990    -291.563     926.624
  O     -522.625    -292.396     926.095
  H     -525.348    -297.292     922.278
  H     -524.761    -291.975     927.483
  H     -528.301    -300.670     926.984
  H     -525.628    -294.792     926.715
  H     -525.203    -298.005     924.800
  H     -527.599    -296.714     923.952
  H     -526.585    -294.501     924.124
  H     -524.166    -295.768     922.711
  H     -522.943    -294.076     924.180
  H     -529.140    -298.114     930.612
  H     -528.340    -296.569     930.349
  H     -523.825    -293.388     922.801
  P     -527.681    -293.691     921.928
  C     -529.340    -295.311     923.047
  O     -528.990    -294.616     921.858
  O     -527.518    -293.202     920.413
  O     -527.693    -292.603     922.958
  H     -527.413    -293.955     919.819
  H     -530.252    -295.866     922.876
  H     -529.469    -294.628     923.877
  H     -528.528    -296.045     923.297
  H     -522.716    -289.512     923.327
  H     -522.416    -291.232     923.249
  H     -521.838    -290.305     924.613

 3  4  5  6  7  8  9  10  11  12  22  25  29  30  31  32 0
 6-311+G(2d,p)
 ****
 33  36  37 0
 6-311+G(2d,p)
 ****
 1  2  13  14  15  16  17  18  19  20  21  23  24  26 0
 3-21G
 ****
 27  28  34  35  38  39  40  41  42  43  44  45  46  47  48 0
 3-21G
 ****


