%nproc=1
%NoSave
%Mem=1900MB
#P OB98/GEN NMR

erre ene a

0 1
  C     -531.135    -374.083      10.907
  O     -532.455    -373.677      10.619
  H     -530.501    -373.192      10.976
  H     -530.742    -374.722      10.109
  H     -531.093    -374.612      11.865
  P     -533.584    -374.806      10.463
  C     -533.903    -376.743       8.769
  O     -533.214    -375.546       9.077
  C     -533.508    -377.232       7.378
  O     -532.073    -377.295       7.234
  C     -533.987    -378.641       7.031
  O     -535.380    -378.725       6.756
  C     -533.145    -378.903       5.795
  O     -533.683    -378.191       4.676
  C     -531.782    -378.323       6.237
  N     -530.891    -379.336       6.801
  C     -530.224    -380.168       5.894
  O     -530.408    -380.040       4.676
  N     -529.395    -381.153       6.369
  C     -529.261    -381.311       7.654
  N     -528.422    -382.309       8.079
  C     -529.940    -380.478       8.647
  C     -530.741    -379.514       8.163
  O     -534.999    -374.341      10.580
  O     -533.188    -375.929      11.536
  H     -534.647    -378.353       4.676
  H     -533.866    -376.647      11.485
  H     -529.819    -380.664       9.708
  H     -531.279    -378.860       8.835
  H     -531.277    -377.835       5.395
  H     -533.111    -379.965       5.516
  H     -533.705    -379.356       7.813
  H     -533.878    -376.493       6.652
  H     -527.968    -382.869       7.366
  H     -534.980    -376.543       8.823
  H     -528.312    -382.552       9.044
  H     -533.646    -377.514       9.494
  P     -535.992    -380.193       6.556
  C     -535.875    -381.965       4.641
  O     -535.618    -380.641       5.071
  O     -537.571    -379.921       6.501
  O     -535.631    -381.191       7.618
  H     -537.986    -380.100       7.367
  H     -535.560    -382.077       3.625
  H     -536.923    -382.166       4.714
  H     -535.336    -382.652       5.260

 6  7  8  9  10  11  12  13  14  15  16  26  30  31  32  33  35 0
 6-311+G(2d,p)
 ****
 37  38 0
 6-311+G(2d,p)
 ****
 1  2  3  4  5  17  18  19  20  21  22  23  24  25 0
 3-21G
 ****
 27  28  29  34  36  39  40  41  42  43  44  45  46 0
 3-21G
 ****


