%nproc=1
%NoSave
%Mem=1900MB
#P OB98/GEN NMR

erre ene a

0 1
  C      194.199      19.945     -14.761
  O      194.961      21.116     -14.569
  P      195.141      21.742     -13.104
  C      193.307      23.509     -13.474
  O      193.721      22.381     -12.711
  C      191.861      23.866     -13.142
  O      190.985      22.723     -13.329
  C      191.638      24.273     -11.693
  O      192.237      25.472     -11.255
  C      190.125      24.175     -11.584
  O      189.488      25.336     -12.114
  C      189.833      22.942     -12.475
  N      189.514      21.758     -11.682
  C      188.243      21.725     -11.121
  O      187.411      22.621     -11.264
  N      187.955      20.630     -10.351
  C      188.815      19.609     -10.056
  O      188.507      18.681      -9.321
  C      190.149      19.707     -10.663
  C      190.436      20.759     -11.436
  O      196.301      22.666     -12.947
  O      195.204      20.451     -12.157
  H      189.633      26.066     -11.481
  H      194.413      19.884     -12.190
  H      187.045      20.592      -9.923
  H      190.850      18.908     -10.461
  H      191.416      20.852     -11.894
  H      188.985      23.147     -13.143
  H      189.797      24.074     -10.545
  H      192.057      23.486     -11.049
  H      191.529      24.644     -13.835
  H      193.378      23.265     -14.537
  H      193.980      24.351     -13.278
  P      192.782      25.696      -9.763
  C      190.578      26.637      -8.770
  O      191.536      25.601      -8.756
  O      193.744      26.818      -9.563
  O      193.534      24.305      -9.486
  H      194.285      24.464      -8.883
  H      189.833      26.431      -7.995
  H      190.073      26.676      -9.739
  H      191.050      27.600      -8.554
  H      194.197      19.687     -15.799
  H      193.195      20.116     -14.434
  H      194.627      19.144     -14.195

 3  4  5  6  7  8  9  10  11  12  13  23  28  29  30  31  32 0
 6-311+G(2d,p)
 ****
 33  34 0
 6-311+G(2d,p)
 ****
 1  2  14  15  16  17  18  19  20  21  22  24  25  26  27 0
 3-21G
 ****
 35  36  37  38  39  40  41  42  43  44  45 0
 3-21G
 ****


