%nproc=1
%NoSave
%Mem=1900MB
#P OB98/GEN NMR

erre ene a

0 1
  C      441.112      83.403    -496.034
  O      440.394      84.026    -497.092
  P      439.275      85.109    -496.695
  C      437.028      85.064    -497.995
  O      438.420      85.356    -498.029
  C      436.463      84.988    -499.410
  O      436.776      86.195    -500.139
  C      437.017      83.847    -500.252
  O      436.367      82.615    -499.983
  C      436.676      84.332    -501.652
  O      435.286      84.073    -501.934
  C      436.921      85.839    -501.538
  N      439.643      87.325    -505.604
  C      438.359      86.925    -505.478
  N      437.712      86.532    -504.364
  C      438.538      86.546    -503.306
  C      439.879      86.896    -503.287
  C      440.439      87.312    -504.505
  N      441.736      87.749    -504.628
  N      440.393      86.784    -502.015
  C      439.388      86.383    -501.272
  N      438.238      86.236    -502.002
  O      440.121      86.459    -496.541
  O      438.498      84.791    -495.463
  H      434.767      84.570    -501.270
  H      439.648      87.088    -495.965
  H      437.774      86.925    -506.393
  H      439.433      86.196    -500.205
  H      436.184      86.426    -502.098
  H      437.260      83.828    -502.431
  H      438.106      83.768    -500.145
  H      435.370      84.913    -499.334
  H      436.510      85.858    -497.445
  H      442.005      88.203    -505.488
  H      442.262      87.929    -503.775
  H      436.877      84.116    -497.471
  P      437.282      81.427    -499.408
  C      436.018      79.474    -500.567
  O      436.323      80.144    -499.359
  O      437.470      81.825    -497.871
  O      438.581      81.258    -500.117
  H      438.294      81.437    -497.517
  H      435.633      78.476    -500.332
  H      436.909      79.363    -501.195
  H      435.248      80.028    -501.116
  H      441.819      82.711    -496.442
  H      440.428      82.881    -495.397
  H      441.630      84.148    -495.467

 3  4  5  6  7  8  9  10  11  12  22  25  29  30  31  32 0
 6-311+G(2d,p)
 ****
 33  36  37 0
 6-311+G(2d,p)
 ****
 1  2  13  14  15  16  17  18  19  20  21  23  24  26 0
 3-21G
 ****
 27  28  34  35  38  39  40  41  42  43  44  45  46  47  48 0
 3-21G
 ****


