%nproc=1
%NoSave
%Mem=1900MB
#P OB98/GEN NMR

erre ene a

0 1
  C     -275.682    -431.282     142.097
  O     -275.606    -432.382     142.981
  H     -276.426    -430.577     142.478
  H     -275.996    -431.620     141.107
  H     -274.720    -430.768     142.025
  P     -274.408    -433.432     142.809
  C     -273.542    -433.763     145.216
  O     -274.346    -434.284     144.167
  C     -274.288    -432.662     145.975
  O     -275.479    -433.245     146.586
  C     -273.466    -432.010     147.104
  O     -273.884    -430.643     147.205
  C     -273.932    -432.813     148.304
  O     -273.566    -432.206     149.516
  C     -275.426    -432.913     147.989
  N     -276.130    -433.900     148.797
  C     -276.532    -433.514     150.070
  O     -276.353    -432.390     150.536
  N     -277.156    -434.480     150.816
  C     -277.402    -435.762     150.420
  O     -277.984    -436.581     151.120
  C     -276.925    -436.120     149.075
  C     -276.320    -435.186     148.336
  O     -273.105    -432.862     142.360
  O     -274.982    -434.490     141.752
  H     -274.651    -434.273     140.860
  H     -274.022    -431.344     149.620
  H     -277.456    -434.216     151.741
  H     -277.085    -437.136     148.740
  H     -275.954    -435.413     147.340
  H     -275.913    -431.938     148.107
  H     -273.470    -433.805     148.300
  H     -272.387    -432.052     146.927
  H     -274.637    -431.910     145.256
  H     -272.627    -433.355     144.775
  H     -273.275    -434.573     145.903
  P     -273.132    -429.433     146.465
  C     -274.845    -427.508     146.445
  O     -273.670    -428.037     147.044
  O     -273.186    -429.518     144.973
  O     -271.614    -429.500     146.974
  H     -271.019    -429.242     146.244
  H     -275.099    -426.581     146.916
  H     -275.650    -428.202     146.566
  H     -274.670    -427.342     145.403

 6  7  8  9  10  11  12  13  14  15  16  27  31  32  33  34  35 0
 6-311+G(2d,p)
 ****
 36  37 0
 6-311+G(2d,p)
 ****
 1  2  3  4  5  17  18  19  20  21  22  23  24  25 0
 3-21G
 ****
 26  28  29  30  38  39  40  41  42  43  44  45 0
 3-21G
 ****


