%nproc=1
%NoSave
%Mem=1900MB
#P OB98/GEN NMR

erre ene a

0 1
  C       63.554     -46.657     -23.945
  O       62.891     -45.398     -23.813
  P       61.838     -44.941     -24.929
  C       59.872     -43.266     -24.792
  O       61.255     -43.497     -24.549
  C       59.490     -41.853     -24.340
  O       59.558     -41.721     -22.900
  C       60.437     -40.785     -24.871
  O       60.389     -40.525     -26.258
  C       60.166     -39.619     -23.935
  O       59.018     -38.875     -24.340
  C       59.897     -40.350     -22.598
  N       61.030     -40.274     -21.676
  C       61.032     -39.195     -20.799
  O       60.172     -38.317     -20.805
  N       62.088     -39.136     -19.928
  C       63.133     -40.011     -19.876
  O       64.065     -39.898     -19.090
  C       63.087     -41.118     -20.844
  C       62.056     -41.199     -21.686
  O       60.818     -45.959     -25.312
  O       62.784     -44.605     -26.186
  H       59.249     -38.407     -25.164
  H       62.341     -44.942     -26.990
  H       62.102     -38.364     -19.279
  H       63.902     -41.828     -20.834
  H       62.003     -42.007     -22.407
  H       59.026     -39.915     -22.093
  H       61.007     -38.920     -23.908
  H       61.465     -41.117     -24.670
  H       58.458     -41.659     -24.640
  H       59.274     -44.008     -24.260
  H       59.669     -43.411     -25.858
  P       61.564     -40.932     -27.270
  C       61.993     -40.405     -29.771
  O       61.515     -39.941     -28.528
  O       61.754     -42.385     -27.551
  O       62.859     -40.394     -26.482
  H       63.608     -40.987     -26.679
  H       61.899     -39.599     -30.504
  H       61.403     -41.259     -30.114
  H       63.047     -40.685     -29.695
  H       64.217     -46.799     -23.117
  H       64.114     -46.672     -24.857
  H       62.828     -47.443     -23.960

 3  4  5  6  7  8  9  10  11  12  13  23  28  29  30  31  32 0
 6-311+G(2d,p)
 ****
 33  34 0
 6-311+G(2d,p)
 ****
 1  2  14  15  16  17  18  19  20  21  22  24  25  26  27 0
 3-21G
 ****
 35  36  37  38  39  40  41  42  43  44  45 0
 3-21G
 ****


