%nproc=1
%NoSave
%Mem=1900MB
#P OB98/GEN NMR

erre ene a

0 1
  C       -1.036      12.057       7.959
  O       -0.403      12.092       9.221
  H       -1.578      12.995       7.810
  H       -1.749      11.229       7.918
  H       -0.294      11.948       7.163
  P        0.486      10.817       9.617
  C       -1.498       9.873      11.008
  O       -0.547       9.643       9.975
  C       -1.763       8.574      11.763
  O       -2.827       8.783      12.719
  C       -2.225       7.420      10.880
  O       -1.145       6.805      10.203
  C       -2.895       6.514      11.905
  O       -1.939       5.688      12.582
  C       -3.507       7.519      12.889
  N       -8.119       6.089      14.518
  C       -6.875       5.805      14.963
  N       -5.693       6.244      14.482
  C       -5.885       7.066      13.437
  C       -7.090       7.441      12.869
  C       -8.252       6.917      13.456
  N       -9.515       7.177      12.982
  N       -6.876       8.262      11.779
  C       -5.567       8.389      11.698
  N       -4.930       7.688      12.682
  O        1.094      11.234      11.040
  O        1.551      10.454       8.638
  H       -2.445       4.976      13.019
  H        1.980      11.623      10.915
  H       -6.823       5.133      15.816
  H       -5.040       8.964      10.947
  H       -3.365       7.215      13.933
  H       -3.621       5.851      11.434
  H       -2.983       7.768      10.168
  H       -0.857       8.301      12.317
  H       -2.434      10.230      10.565
  H       -1.107      10.640      11.684
  H      -10.303       6.747      13.439
  H       -9.619       7.706      12.126
  P       -1.404       6.194       8.746
  C       -1.269       3.695       9.452
  O       -2.070       4.747       8.937
  O        0.070       5.867       8.218
  O       -2.144       7.095       7.815
  H        0.376       6.565       7.609
  H       -1.854       2.801       9.519
  H       -0.912       3.962      10.425
  H       -0.437       3.528       8.800

 6  7  8  9  10  11  12  13  14  15  25  28  32  33  34  35 0
 6-311+G(2d,p)
 ****
 36  37  40 0
 6-311+G(2d,p)
 ****
 1  2  3  4  5  16  17  18  19  20  21  22  23  24 0
 3-21G
 ****
 26  27  29  30  31  38  39 41  42  43  44  45  46  47  48 0
 3-21G
 ****


