%nproc=1
%NoSave
%Mem=1900MB
#P OB98/GEN NMR

erre ene a

0 1
  C     -171.224     142.236    -635.781
  O     -170.620     141.071    -636.302
  H     -170.689     143.111    -636.163
  H     -171.160     142.239    -634.691
  H     -172.270     142.308    -636.093
  P     -171.335     139.657    -636.065
  C     -170.881     139.636    -633.528
  O     -171.866     139.656    -634.552
  C     -171.402     138.872    -632.316
  O     -170.385     138.802    -631.294
  C     -172.616     139.510    -631.654
  O     -173.791     139.277    -632.407
  C     -172.586     138.830    -630.290
  O     -173.154     137.515    -630.361
  C     -171.065     138.762    -630.018
  N     -170.587     139.828    -629.135
  C     -170.570     139.544    -627.774
  O     -170.967     138.486    -627.303
  N     -170.096     140.546    -626.962
  C     -169.727     141.799    -627.365
  O     -169.362     142.675    -626.591
  C     -169.800     142.048    -628.810
  C     -170.217     141.073    -629.618
  O     -170.544     138.451    -636.455
  O     -172.689     139.773    -636.917
  H     -172.561     136.984    -630.925
  H     -172.583     139.305    -637.768
  H     -170.089     140.367    -625.972
  H     -169.521     143.033    -629.169
  H     -170.278     141.240    -630.685
  H     -170.803     137.798    -629.553
  H     -173.150     139.375    -629.534
  H     -172.449     140.586    -631.510
  H     -171.633     137.843    -632.633
  H     -170.657     140.668    -633.236
  H     -169.973     139.173    -633.920
  P     -174.711     140.492    -632.889
  C     -175.980     140.346    -630.671
  O     -175.304     141.204    -631.578
  O     -175.731     140.147    -633.927
  O     -173.665     141.569    -633.450
  H     -173.697     141.586    -634.426
  H     -176.334     140.916    -629.837
  H     -175.306     139.590    -630.326
  H     -176.809     139.886    -631.166

 6  7  8  9  10  11  12  13  14  15  16  26  31  32  33  34  35 0
 6-311+G(2d,p)
 ****
 36  37 0
 6-311+G(2d,p)
 ****
 1  2  3  4  5  17  18  19  20  21  22  23  24  25 0
 3-21G
 ****
 27  28  29  30  38  39  40  41  42  43  44  45 0
 3-21G
 ****


