%nproc=1
%NoSave
%Mem=1900MB
#P OB98/GEN NMR

erre ene a

0 1
  C      -13.929     134.045     114.533
  O      -13.645     135.165     113.719
  P      -13.589     136.641     114.332
  C      -11.060     136.980     114.568
  O      -12.283     136.747     115.254
  C      -10.250     138.091     115.234
  O       -8.938     138.167     114.618
  C      -10.895     139.480     115.139
  O      -10.641     140.152     116.378
  C      -10.126     140.137     114.009
  O      -10.192     141.556     114.062
  C       -8.733     139.538     114.226
  N       -7.896     139.633     113.040
  C       -6.924     140.634     113.030
  O       -6.888     141.470     113.934
  N       -6.030     140.669     111.989
  C       -6.215     139.897     110.963
  N       -5.268     139.916     109.986
  C       -7.379     139.001     110.832
  C       -8.148     138.885     111.913
  O      -14.849     137.103     114.987
  O      -13.223     137.573     113.081
  H      -13.880     138.293     113.016
  H       -9.768     141.861     114.891
  H       -7.558     138.473     109.908
  H       -9.012     138.232     111.926
  H       -8.223     140.039     115.058
  H      -10.537     139.814     113.046
  H      -11.975     139.436     114.965
  H      -10.099     137.819     116.286
  H       -4.463     140.512     110.128
  H      -11.295     137.277     113.544
  H       -5.156     139.147     109.327
  H      -10.477     136.053     114.521
  P      -11.836     140.992     117.047
  C      -13.164     138.804     117.472
  O      -13.171     140.114     116.946
  O      -12.095     142.124     115.936
  O      -11.544     141.632     118.365
  H      -12.493     142.904     116.367
  H      -14.127     138.335     117.256
  H      -13.025     138.831     118.557
  H      -12.372     138.207     117.012
  H      -13.919     133.158     113.935
  H      -14.894     134.164     114.979
  H      -13.188     133.965     115.301

 3  4  5  6  7  8  9  10  11  12  13  24  27  28  29  30  32 0
 6-311+G(2d,p)
 ****
 34  35 0
 6-311+G(2d,p)
 ****
 1  2  14  15  16  17  18  19  20  21  22  23  25  26 0
 3-21G
 ****
 31  33  36  37  38  39  40  41  42  43  44  45  46 0
 3-21G
 ****


