%nproc=1
%NoSave
%Mem=1900MB
#P OB98/GEN NMR

erre ene a

0 1
  C      791.866     -23.279    -225.156
  O      791.856     -24.580    -224.614
  H      790.924     -22.784    -224.900
  H      791.958     -23.308    -226.246
  H      792.693     -22.700    -224.732
  P      793.015     -25.601    -225.068
  C      793.867     -26.178    -227.440
  O      792.728     -25.909    -226.618
  C      793.463     -26.901    -228.724
  O      793.153     -28.283    -228.441
  C      792.204     -26.337    -229.367
  O      792.376     -25.052    -229.938
  C      791.748     -27.485    -230.262
  O      792.374     -27.505    -231.543
  C      792.208     -28.725    -229.442
  N      791.078     -29.432    -228.849
  C      791.247     -30.801    -228.682
  O      792.262     -31.411    -229.033
  N      790.181     -31.472    -228.139
  C      788.983     -30.919    -227.799
  O      788.051     -31.587    -227.359
  C      788.855     -29.475    -228.023
  C      789.891     -28.801    -228.527
  O      793.170     -26.830    -224.224
  O      794.325     -24.685    -225.118
  H      791.934     -28.210    -232.064
  H      795.145     -25.234    -225.125
  H      790.291     -32.466    -228.007
  H      787.909     -29.000    -227.767
  H      789.823     -27.729    -228.703
  H      792.747     -29.422    -230.089
  H      790.667     -27.456    -230.433
  H      791.438     -26.223    -228.597
  H      794.313     -26.885    -229.414
  H      794.549     -26.817    -226.863
  H      794.382     -25.234    -227.670
  P      791.290     -23.888    -229.812
  C      788.831     -23.567    -230.608
  O      790.082     -24.213    -230.827
  O      791.804     -22.490    -229.747
  O      790.628     -24.223    -228.379
  H      790.385     -23.376    -227.960
  H      788.132     -23.879    -231.356
  H      788.963     -22.507    -230.664
  H      788.458     -23.830    -229.640

 6  7  8  9  10  11  12  13  14  15  16  26  31  32  33  34  35 0
 6-311+G(2d,p)
 ****
 36  37 0
 6-311+G(2d,p)
 ****
 1  2  3  4  5  17  18  19  20  21  22  23  24  25 0
 3-21G
 ****
 27  28  29  30  38  39  40  41  42  43  44  45 0
 3-21G
 ****


