%nproc=1
%NoSave
%Mem=1900MB
#P OB98/GEN NMR

erre ene a

0 1
  C     -621.952     118.420     195.030
  O     -620.988     118.258     194.003
  P     -621.215     117.191     192.826
  C     -618.930     118.080     192.007
  O     -619.759     116.944     192.194
  C     -617.600     117.667     191.380
  O     -616.876     116.834     192.303
  C     -617.737     116.851     190.109
  O     -618.067     117.671     189.002
  C     -616.359     116.187     190.038
  O     -615.398     117.103     189.513
  C     -616.076     115.905     191.534
  N     -616.350     114.527     191.919
  C     -615.361     113.585     191.588
  O     -614.321     113.924     191.026
  N     -615.556     112.271     191.946
  C     -616.653     111.925     192.562
  N     -616.763     110.630     192.959
  C     -617.740     112.874     192.875
  C     -617.519     114.146     192.532
  O     -622.274     117.565     191.834
  O     -621.504     115.806     193.575
  H     -615.693     117.356     188.626
  H     -622.460     115.668     193.788
  H     -618.635     112.533     193.367
  H     -618.260     114.906     192.742
  H     -615.026     116.143     191.764
  H     -616.338     115.285     189.413
  H     -618.509     116.075     190.225
  H     -617.005     118.569     191.192
  H     -615.929     110.058     192.887
  H     -618.737     118.544     192.986
  H     -617.426     110.350     193.671
  H     -619.453     118.815     191.375
  P     -619.177     117.119     187.979
  C     -618.557     119.029     186.322
  O     -618.719     117.632     186.520
  O     -620.461     118.030     188.327
  O     -619.467     115.657     188.093
  H     -621.095     117.515     188.868
  H     -618.020     119.178     185.377
  H     -617.974     119.468     187.131
  H     -619.536     119.507     186.246
  H     -621.621     119.173     195.715
  H     -622.077     117.494     195.551
  H     -622.886     118.716     194.599

 3  4  5  6  7  8  9  10  11  12  13  23  27  28  29  30  32 0
 6-311+G(2d,p)
 ****
 34  35 0
 6-311+G(2d,p)
 ****
 1  2  14  15  16  17  18  19  20  21  22  24  25  26 0
 3-21G
 ****
 31  33  36  37  38  39  40  41  42  43  44  45  46 0
 3-21G
 ****


