%nproc=1
%NoSave
%Mem=1900MB
#P OB98/GEN NMR

erre ene a

0 1
  C      176.325     251.739    -102.451
  O      176.368     250.517    -103.159
  P      175.347     250.253    -104.362
  C      175.807     247.728    -104.490
  O      174.834     248.738    -104.246
  C      175.132     246.364    -104.614
  O      174.431     246.033    -103.394
  C      174.087     246.284    -105.721
  O      174.703     246.176    -106.988
  C      173.292     245.058    -105.289
  O      173.958     243.854    -105.702
  C      173.318     245.186    -103.759
  N      169.168     244.115    -100.994
  C      170.139     243.328    -101.498
  N      171.197     243.685    -102.263
  C      171.173     245.004    -102.510
  C      170.228     245.929    -102.093
  C      169.192     245.438    -101.274
  N      168.229     246.245    -100.704
  N      170.533     247.187    -102.579
  C      171.637     247.020    -103.284
  N      172.092     245.733    -103.216
  O      175.835     250.653    -105.713
  O      174.053     251.103    -103.953
  H      173.476     243.104    -105.303
  H      173.879     251.775    -104.640
  H      170.066     242.273    -101.252
  H      172.144     247.796    -103.836
  H      173.485     244.218    -103.272
  H      172.285     245.038    -105.718
  H      173.435     247.167    -105.680
  H      175.915     245.609    -104.768
  H      176.509     247.719    -103.650
  H      167.624     245.814    -100.018
  H      168.408     247.243    -100.651
  H      176.354     247.966    -105.406
  P      174.167     247.062    -108.210
  C      174.799     245.269    -109.930
  O      173.754     246.043    -109.377
  O      175.046     248.191    -108.631
  O      172.745     247.597    -107.692
  H      172.571     248.477    -108.075
  H      175.383     245.881    -110.627
  H      174.365     244.424    -110.474
  H      175.459     244.883    -109.144
  H      177.075     251.736    -101.688
  H      175.361     251.858    -102.002
  H      176.506     252.549    -103.126

 3  4  5  6  7  8  9  10  11  12  22  25  29  30  31  32 0
 6-311+G(2d,p)
 ****
 33  36  37 0
 6-311+G(2d,p)
 ****
 1  2  13  14  15  16  17  18  19  20  21  23  24  26 0
 3-21G
 ****
 27  28  34  35  38  39  40  41  42  43  44  45  46  47  48 0
 3-21G
 ****


