%nproc=1
%NoSave
%Mem=1900MB
#P OB98/GEN NMR

erre ene a

0 1
  C      -84.240     258.197    -157.212
  O      -84.020     256.966    -156.555
  P      -84.745     256.644    -155.162
  C      -83.431     258.451    -153.875
  O      -83.688     257.058    -154.026
  C      -83.417     258.845    -152.398
  O      -84.739     258.742    -151.834
  C      -82.525     257.967    -151.530
  O      -81.163     258.315    -151.702
  C      -83.085     258.260    -150.145
  O      -82.539     259.476    -149.609
  C      -84.593     258.422    -150.433
  N      -85.359     257.238    -150.067
  C      -85.302     256.866    -148.718
  O      -84.609     257.504    -147.925
  N      -85.992     255.749    -148.314
  C      -86.660     255.056    -149.183
  N      -87.313     253.954    -148.722
  C      -86.719     255.396    -150.619
  C      -86.051     256.487    -150.986
  O      -85.312     255.270    -155.040
  O      -85.851     257.798    -155.055
  H      -82.725     260.173    -150.269
  H      -86.606     257.632    -155.670
  H      -87.278     254.780    -151.307
  H      -86.039     256.807    -152.021
  H      -85.001     259.277    -149.878
  H      -82.855     257.463    -149.432
  H      -82.690     256.912    -151.777
  H      -83.098     259.894    -152.329
  H      -87.221     253.739    -147.738
  H      -84.223     259.004    -154.388
  H      -87.829     253.326    -149.318
  H      -82.476     258.697    -154.351
  P      -80.075     257.170    -151.956
  C      -79.983     256.796    -149.421
  O      -79.234     256.985    -150.605
  O      -79.260     257.325    -153.197
  O      -80.951     255.831    -152.021
  H      -80.642     255.284    -152.768
  H      -79.331     256.360    -148.659
  H      -80.829     256.126    -149.591
  H      -80.347     257.763    -149.062
  H      -83.673     258.224    -158.119
  H      -83.933     259.001    -156.576
  H      -85.281     258.299    -157.439

 3  4  5  6  7  8  9  10  11  12  13  23  27  28  29  30  32 0
 6-311+G(2d,p)
 ****
 34  35 0
 6-311+G(2d,p)
 ****
 1  2  14  15  16  17  18  19  20  21  22  24  25  26 0
 3-21G
 ****
 31  33  36  37  38  39  40  41  42  43  44  45  46 0
 3-21G
 ****


