%nproc=1
%NoSave
%Mem=1900MB
#P OB98/GEN NMR

erre ene a

0 1
  C     -277.916     370.801    -457.731
  O     -277.500     369.705    -458.523
  H     -277.188     371.608    -457.842
  H     -277.954     370.503    -456.680
  H     -278.894     371.167    -458.051
  P     -278.524     368.500    -458.776
  C     -278.848     369.104    -461.261
  O     -279.466     368.954    -459.998
  C     -279.799     369.772    -462.263
  O     -280.294     371.013    -461.680
  C     -279.145     370.122    -463.608
  O     -280.163     370.034    -464.616
  C     -278.746     371.573    -463.389
  O     -278.486     372.234    -464.606
  C     -279.947     372.078    -462.585
  N     -279.665     373.327    -461.876
  C     -280.446     374.429    -462.229
  O     -281.304     374.394    -463.105
  N     -280.165     375.602    -461.575
  C     -279.165     375.779    -460.662
  O     -278.941     376.858    -460.129
  C     -278.352     374.594    -460.365
  C     -278.636     373.439    -460.972
  O     -279.256     368.005    -457.571
  O     -277.625     367.353    -459.442
  H     -278.412     373.197    -464.458
  H     -277.982     366.467    -459.209
  H     -280.720     376.401    -461.809
  H     -277.538     374.711    -459.649
  H     -278.047     372.550    -460.770
  H     -280.808     372.250    -463.245
  H     -277.830     371.639    -462.784
  H     -278.300     369.487    -463.856
  H     -280.664     369.122    -462.406
  H     -278.571     368.107    -461.624
  H     -277.939     369.709    -461.163
  P     -280.268     368.781    -465.608
  C     -282.493     368.067    -464.534
  O     -281.187     367.661    -464.922
  O     -278.951     368.274    -466.105
  O     -281.168     369.304    -466.824
  H     -280.941     368.814    -467.640
  H     -283.007     367.240    -464.091
  H     -283.033     368.403    -465.395
  H     -282.422     368.864    -463.824

 6  7  8  9  10  11  12  13  14  15  16  26  31  32  33  34  35 0
 6-311+G(2d,p)
 ****
 36  37 0
 6-311+G(2d,p)
 ****
 1  2  3  4  5  17  18  19  20  21  22  23  24  25 0
 3-21G
 ****
 27  28  29  30  38  39  40  41  42  43  44  45 0
 3-21G
 ****


