%nproc=1
%NoSave
%Mem=1900MB
#P OB98/GEN NMR

erre ene a

0 1
  C       -9.490     225.988      45.333
  O       -8.723     224.805      45.412
  H       -9.717     226.190      44.283
  H       -8.919     226.829      45.736
  H      -10.427     225.876      45.884
  P       -8.355     224.276      46.882
  C       -6.136     225.551      46.460
  O       -7.137     225.190      47.399
  C       -5.273     226.689      47.000
  O       -4.889     226.379      48.373
  C       -3.980     226.935      46.206
  O       -3.714     228.346      46.219
  C       -2.925     226.246      47.057
  O       -1.610     226.738      46.802
  C       -3.462     226.556      48.453
  N        0.124     226.326      51.977
  C       -0.256     227.365      51.150
  N        0.426     228.522      51.281
  N       -1.218     227.277      50.272
  C       -1.836     226.069      50.273
  C       -1.554     224.961      51.034
  C       -0.467     225.064      51.986
  O       -0.073     224.172      52.733
  N       -2.388     223.918      50.718
  C       -3.174     224.396      49.771
  N       -2.876     225.699      49.467
  O       -7.665     222.863      46.584
  O       -9.506     224.151      47.824
  H       -1.628     227.711      46.914
  H       -8.326     222.148      46.636
  H        0.882     226.443      52.628
  H       -3.962     223.849      49.271
  H       -3.258     227.590      48.760
  H       -2.929     225.166      46.865
  H        1.146     228.680      51.966
  H       -4.008     226.571      45.175
  H        0.132     229.310      50.711
  H       -5.883     227.600      47.045
  H       -6.619     225.875      45.532
  H       -5.509     224.675      46.248
  P       -4.112     229.196      44.921
  C       -1.770     228.985      43.811
  O       -3.166     228.737      43.714
  O       -3.557     230.658      45.273
  O       -5.576     229.219      44.629
  H       -4.085     231.332      44.810
  H       -1.281     228.622      42.931
  H       -1.377     228.483      44.670
  H       -1.600     230.037      43.904

 6  7  8  9  10  11  12  13  14  15  26  29  33  34 0
 6-311+G(2d,p)
 ****
 36  38  39  40  41 0
 6-311+G(2d,p)
 ****
 1  2  3  4  5  16  17  18  19  20  21  22  23  24  25 0
 3-21G
 ****
 27  28  30  31  32  35  37  42  43  44  45  46  47 0
 3-21G
 ****
 48  49 0
 3-21G
 ****


