%nproc=1
%NoSave
%Mem=1900MB
#P OB98/GEN NMR

erre ene a

0 1
  C      291.438     243.776      79.342
  O      290.150     243.195      79.271
  H      291.392     244.782      78.919
  H      292.150     243.180      78.762
  H      291.770     243.843      80.386
  P      289.951     241.779      79.996
  C      290.913     239.372      79.579
  O      290.646     240.666      79.061
  C      292.081     238.741      78.820
  O      293.212     239.629      78.759
  C      292.638     237.487      79.477
  O      291.770     236.380      79.373
  C      293.939     237.327      78.703
  O      293.707     236.736      77.417
  C      294.395     238.802      78.558
  N      295.461     239.158      79.479
  C      296.672     238.477      79.294
  O      296.787     237.640      78.389
  N      297.712     238.729      80.162
  C      297.562     239.602      81.106
  N      298.620     239.809      81.937
  C      296.313     240.365      81.317
  C      295.314     240.088      80.483
  O      288.390     241.497      79.784
  O      290.408     241.721      81.417
  H      294.558     236.785      76.935
  H      288.107     241.553      78.856
  H      296.244     241.091      82.118
  H      294.364     240.601      80.570
  H      294.739     238.997      77.533
  H      294.649     236.684      79.226
  H      292.892     237.694      80.526
  H      291.745     238.539      77.792
  H      299.457     239.251      81.769
  H      290.027     238.734      79.527
  H      298.614     240.436      82.724
  H      291.173     239.489      80.637
  P      291.788     235.220      80.485
  C      293.577     233.597      81.369
  O      293.174     234.433      80.289
  O      290.577     234.353      80.512
  O      292.045     236.027      81.852
  H      292.873     236.536      81.872
  H      294.508     233.127      81.128
  H      292.832     232.848      81.537
  H      293.694     234.188      82.253

 6  7  8  9  10  11  12  13  14  15  16  26  30  31  32  33  35 0
 6-311+G(2d,p)
 ****
 37  38 0
 6-311+G(2d,p)
 ****
 1  2  3  4  5  17  18  19  20  21  22  23  24  25 0
 3-21G
 ****
 27  28  29  34  36  39  40  41  42  43  44  45  46 0
 3-21G
 ****


