%nproc=1
%NoSave
%Mem=1900MB
#P OB98/GEN NMR

erre ene a

0 1
  C     -105.136     -76.811     -64.685
  O     -105.780     -76.547     -63.441
  P     -106.948     -77.545     -62.985
  C     -106.316     -77.491     -60.440
  O     -107.279     -77.241     -61.447
  C     -106.701     -76.791     -59.123
  O     -106.599     -75.356     -59.320
  C     -108.128     -77.034     -58.648
  O     -108.212     -76.701     -57.261
  C     -108.901     -76.015     -59.458
  O     -110.188     -75.766     -58.900
  C     -107.934     -74.811     -59.483
  N     -108.009     -74.017     -60.730
  C     -109.266     -73.651     -61.207
  O     -110.323     -73.949     -60.655
  N     -109.282     -72.951     -62.382
  C     -108.192     -72.551     -63.092
  O     -108.266     -72.002     -64.183
  C     -106.891     -72.840     -62.474
  C     -106.859     -73.556     -61.348
  O     -106.232     -78.974     -62.960
  O     -108.137     -77.529     -63.886
  H     -110.639     -75.137     -59.509
  H     -106.510     -79.505     -63.728
  H     -110.188     -72.737     -62.774
  H     -106.001     -72.480     -62.974
  H     -105.903     -73.796     -60.888
  H     -108.135     -74.126     -58.650
  H     -109.055     -76.393     -60.474
  H     -108.495     -78.051     -58.811
  H     -105.980     -77.069     -58.346
  H     -105.333     -77.156     -60.775
  H     -106.237     -78.570     -60.267
  P     -107.658     -77.764     -56.197
  C     -106.779     -75.806     -54.783
  O     -107.554     -76.989     -54.797
  O     -106.443     -78.527     -56.605
  O     -108.918     -78.731     -55.967
  H     -108.618     -79.573     -55.580
  H     -107.179     -75.132     -54.022
  H     -106.804     -75.299     -55.754
  H     -105.746     -76.055     -54.532
  H     -104.383     -76.071     -64.861
  H     -105.858     -76.780     -65.474
  H     -104.683     -77.780     -64.654

 3  4  5  6  7  8  9  10  11  12  13  23  28  29  30  31  32 0
 6-311+G(2d,p)
 ****
 33  34 0
 6-311+G(2d,p)
 ****
 1  2  14  15  16  17  18  19  20  21  22  24  25  26  27 0
 3-21G
 ****
 35  36  37  38  39  40  41  42  43  44  45 0
 3-21G
 ****


