%nproc=1
%NoSave
%Mem=1900MB
#P OB98/GEN NMR

erre ene a

0 1
  C      -66.031      55.105     470.841
  O      -65.240      54.973     472.005
  H      -65.422      55.556     470.053
  H      -66.890      55.751     471.038
  H      -66.371      54.121     470.504
  P      -65.961      54.356     473.299
  C      -64.157      53.061     474.629
  O      -64.808      54.306     474.413
  C      -63.067      53.202     475.689
  O      -61.824      53.587     475.079
  C      -63.362      54.251     476.755
  O      -64.196      53.713     477.767
  C      -61.961      54.533     477.278
  O      -61.584      53.509     478.220
  C      -61.095      54.423     476.011
  N      -57.396      57.819     474.936
  C      -57.418      56.746     475.756
  N      -58.450      55.923     476.035
  C      -59.551      56.288     475.358
  C      -59.678      57.362     474.488
  C      -58.531      58.144     474.279
  N      -58.514      59.241     473.440
  N      -60.959      57.431     473.980
  C      -61.574      56.384     474.491
  N      -60.776      55.682     475.358
  O      -66.717      53.092     473.078
  O      -66.846      55.604     473.776
  H      -62.163      53.613     478.995
  H      -66.344      56.434     473.686
  H      -56.480      56.522     476.258
  H      -62.587      56.076     474.246
  H      -60.140      53.931     476.216
  H      -61.891      55.487     477.803
  H      -63.772      55.171     476.319
  H      -62.915      52.217     476.149
  H      -63.716      52.697     473.694
  H      -57.716      59.853     473.501
  H      -59.395      59.554     473.056
  H      -64.916      52.340     474.956
  P      -65.433      54.548     478.352
  C      -67.094      52.588     478.212
  O      -66.365      53.457     479.072
  O      -66.109      55.430     477.363
  O      -64.817      55.357     479.587
  H      -65.412      56.086     479.842
  H      -67.675      51.909     478.800
  H      -66.411      52.036     477.601
  H      -67.744      53.166     477.588

 6  7  8  9  10  11  12  13  14  15  25  28  32  33  34  35 0
 6-311+G(2d,p)
 ****
 36  39  40 0
 6-311+G(2d,p)
 ****
 1  2  3  4  5  16  17  18  19  20  21  22  23  24 0
 3-21G
 ****
 26  27  29  30  31  37  38  41  42  43  44  45  46  47 0
 3-21G
 ****
 48 0
 3-21G
 ****


