%nproc=1
%NoSave
%Mem=1900MB
#P OB98/GEN NMR

erre ene a

0 1
  C     1500.810     -61.407     295.771
  O     1500.537     -61.167     297.144
  H     1501.268     -60.504     295.345
  H     1499.879     -61.616     295.239
  H     1501.506     -62.238     295.674
  P     1499.824     -62.361     297.950
  C     1497.465     -63.357     297.644
  O     1498.265     -62.203     297.594
  C     1496.411     -63.340     296.536
  O     1497.042     -63.158     295.249
  C     1495.567     -64.600     296.427
  O     1494.500     -64.566     297.355
  C     1495.061     -64.503     294.988
  O     1493.936     -63.601     294.948
  C     1496.261     -63.866     294.259
  N     1496.849     -66.809     290.084
  C     1495.782     -66.130     290.554
  N     1495.671     -65.405     291.701
  C     1496.840     -65.431     292.380
  C     1498.007     -66.070     292.019
  C     1498.002     -66.785     290.816
  N     1499.089     -67.481     290.333
  N     1498.995     -65.896     292.976
  C     1498.450     -65.087     293.862
  N     1497.130     -64.803     293.563
  O     1500.168     -62.453     299.399
  O     1500.249     -63.621     297.065
  H     1493.195     -64.062     295.413
  H     1500.196     -63.411     296.114
  H     1494.894     -66.146     289.928
  H     1498.959     -64.650     294.711
  H     1495.939     -63.125     293.516
  H     1494.719     -65.459     294.597
  H     1496.180     -65.517     296.526
  H     1495.769     -62.452     296.699
  H     1496.961     -63.447     298.619
  H     1498.931     -68.106     289.558
  H     1499.892     -67.586     290.954
  H     1498.122     -64.233     297.515
  P     1493.619     -65.886     297.670
  C     1492.877     -67.794     296.123
  O     1493.134     -66.396     296.233
  O     1492.553     -65.685     298.684
  O     1494.715     -66.982     298.102
  H     1494.250     -67.726     298.546
  H     1492.561     -68.021     295.126
  H     1492.107     -68.071     296.813
  H     1493.770     -68.339     296.347

 6  7  8  9  10  11  12  13  14  15  25  28  32  33  34  35 0
 6-311+G(2d,p)
 ****
 36  39  40 0
 6-311+G(2d,p)
 ****
 1  2  3  4  5  16  17  18  19  20  21  22  23  24 0
 3-21G
 ****
 26  27  29  30  31  37  38  41  42  43  44  45  46  47 0
 3-21G
 ****
 48 0
 3-21G
 ****


