%nproc=1
%NoSave
%Mem=1900MB
#P OB98/GEN NMR

erre ene a

0 1
  C       39.782    -175.699     226.190
  O       39.447    -177.085     226.006
  P       37.970    -177.590     226.392
  C       36.858    -178.241     228.671
  O       38.017    -178.258     227.851
  C       36.958    -179.324     229.748
  O       37.012    -180.638     229.141
  C       38.204    -179.233     230.615
  O       38.102    -178.206     231.586
  C       38.254    -180.635     231.217
  O       37.385    -180.737     232.357
  C       37.732    -181.500     230.052
  N       38.797    -182.232     229.370
  C       39.033    -183.527     229.805
  O       38.433    -184.046     230.747
  N       40.010    -184.214     229.132
  C       40.806    -183.712     228.140
  O       41.679    -184.368     227.592
  C       40.563    -182.306     227.782
  C       39.588    -181.641     228.407
  O       37.800    -178.876     225.446
  O       36.868    -176.610     226.155
  H       37.408    -181.672     232.645
  H       36.853    -179.009     225.245
  H       40.178    -185.169     229.409
  H       41.188    -181.864     227.016
  H       39.398    -180.600     228.151
  H       36.995    -182.224     230.424
  H       39.259    -180.912     231.556
  H       39.091    -179.086     229.983
  H       36.052    -179.275     230.368
  H       35.977    -178.430     228.053
  H       36.760    -177.251     229.128
  P       39.432    -177.348     231.870
  C       41.468    -177.707     233.468
  O       40.302    -178.238     232.878
  O       38.836    -176.160     232.768
  O       40.118    -176.905     230.621
  H       38.100    -176.457     233.328
  H       41.373    -176.635     233.654
  H       42.324    -177.892     232.808
  H       41.641    -178.214     234.423
  H       40.795    -175.534     225.887
  H       39.672    -175.439     227.222
  H       39.129    -175.093     225.598

 3  4  5  6  7  8  9  10  11  12  13  23  28  29  30  31  32 0
 6-311+G(2d,p)
 ****
 33  34 0
 6-311+G(2d,p)
 ****
 1  2  14  15  16  17  18  19  20  21  22  24  25  26 0
 3-21G
 ****
 27  35  36  37  38  39  40  41  42  43  44  45 0
 3-21G
 ****


