%nproc=1
%NoSave
%Mem=1900MB
#P OB98/GEN NMR

erre ene a

0 1
  C       81.344    -319.788     -59.856
  O       81.609    -318.455     -59.474
  H       80.663    -320.233     -59.125
  H       82.269    -320.370     -59.867
  H       80.870    -319.823     -60.842
  P       82.462    -317.524     -60.460
  C       80.495    -316.704     -61.916
  O       81.488    -316.352     -60.958
  C       79.410    -315.629     -61.953
  O       78.487    -315.809     -60.856
  C       79.945    -314.209     -61.821
  O       80.526    -313.763     -63.025
  C       78.679    -313.468     -61.406
  O       77.865    -313.172     -62.552
  C       77.995    -314.501     -60.489
  N       78.210    -314.234     -59.068
  C       77.545    -313.131     -58.537
  O       76.833    -312.385     -59.204
  N       77.752    -312.898     -57.201
  C       78.621    -313.573     -56.394
  O       78.840    -313.263     -55.226
  C       79.317    -314.709     -57.016
  C       79.082    -314.983     -58.304
  O       83.202    -318.235     -61.544
  O       83.468    -316.755     -59.477
  H       78.430    -312.666     -63.166
  H       84.362    -317.141     -59.564
  H       77.285    -312.098     -56.803
  H       80.007    -315.275     -56.403
  H       79.590    -315.814     -58.779
  H       76.912    -314.515     -60.676
  H       78.900    -312.519     -60.913
  H       80.668    -314.156     -60.995
  H       78.844    -315.743     -62.892
  H       80.050    -317.661     -61.628
  H       80.972    -316.809     -62.896
  P       81.239    -312.330     -63.085
  C       83.586    -313.328     -62.754
  O       82.740    -312.548     -63.602
  O       81.108    -311.500     -61.851
  O       80.534    -311.608     -64.329
  H       80.086    -310.795     -64.026
  H       84.558    -313.408     -63.195
  H       83.167    -314.305     -62.634
  H       83.666    -312.855     -61.798

 6  7  8  9  10  11  12  13  14  15  16  26  31  32  33  34  35 0
 6-311+G(2d,p)
 ****
 36  37 0
 6-311+G(2d,p)
 ****
 1  2  3  4  5  17  18  19  20  21  22  23  24  25 0
 3-21G
 ****
 27  28  29  30  38  39  40  41  42  43  44  45 0
 3-21G
 ****


