%nproc=1
%NoSave
%Mem=1900MB
#P OB98/GEN NMR

erre ene a

0 1
  C      -35.850     341.365     733.222
  O      -35.430     342.566     733.856
  P      -36.056     342.907     735.302
  C      -38.015     344.422     736.190
  O      -37.288     343.902     735.078
  C      -39.501     344.596     735.844
  O      -39.617     345.604     734.815
  C      -40.188     343.365     735.282
  O      -41.609     343.527     735.417
  C      -39.814     343.429     733.814
  O      -40.676     342.626     733.012
  C      -39.863     344.953     733.539
  N      -38.872     345.410     732.532
  C      -38.916     344.841     731.261
  O      -39.723     343.982     730.900
  N      -37.955     345.265     730.374
  C      -36.987     346.218     730.636
  O      -36.106     346.506     729.838
  C      -37.083     346.880     731.942
  C      -37.992     346.442     732.816
  O      -34.939     343.803     736.003
  O      -36.385     341.684     736.104
  H      -41.513     343.153     732.881
  H      -34.463     343.298     736.669
  H      -37.930     344.827     729.476
  H      -36.397     347.683     732.166
  H      -38.063     346.912     733.799
  H      -40.861     345.259     733.173
  H      -38.794     343.059     733.680
  H      -39.876     342.410     735.739
  H      -40.029     344.967     736.733
  H      -37.577     345.388     736.496
  H      -37.912     343.738     737.047
  P      -42.429     342.374     736.169
  C      -44.161     340.602     735.455
  O      -43.131     341.481     735.024
  O      -43.328     342.830     737.281
  O      -41.273     341.398     736.721
  H      -41.627     340.839     737.431
  H      -44.864     340.478     734.630
  H      -44.708     341.009     736.328
  H      -43.730     339.632     735.717
  H      -35.357     341.269     732.277
  H      -36.909     341.393     733.071
  H      -35.600     340.529     733.841

 3  4  5  6  7  8  9  10  11  12  13  23  28  29  30  31  32 0
 6-311+G(2d,p)
 ****
 33  34 0
 6-311+G(2d,p)
 ****
 1  2  14  15  16  17  18  19  20  21  22  24  25  26  27 0
 3-21G
 ****
 35  36  37  38  39  40  41  42  43  44  45 0
 3-21G
 ****


