%nproc=1
%NoSave
%Mem=1900MB
#P OB98/GEN NMR

erre ene a

0 1
  C     -354.263     -55.715    -200.768
  O     -355.486     -55.176    -201.279
  P     -355.711     -53.594    -201.151
  C     -356.319     -53.184    -203.645
  O     -356.742     -53.123    -202.295
  C     -357.507     -53.077    -204.608
  O     -358.450     -54.169    -204.388
  C     -358.299     -51.775    -204.473
  O     -358.851     -51.449    -205.746
  C     -359.430     -52.164    -203.538
  O     -360.517     -51.243    -203.606
  C     -359.723     -53.577    -204.046
  N     -364.031     -54.095    -201.471
  C     -363.648     -53.123    -202.377
  N     -364.559     -52.171    -202.661
  N     -362.477     -53.097    -202.951
  C     -361.682     -54.134    -202.591
  C     -361.940     -55.150    -201.703
  C     -363.241     -55.158    -201.060
  O     -363.628     -55.987    -200.237
  N     -360.869     -56.004    -201.590
  C     -359.965     -55.498    -202.401
  N     -360.415     -54.388    -203.061
  O     -354.314     -52.993    -201.648
  O     -356.040     -53.137    -199.767
  H     -361.165     -51.499    -202.912
  H     -353.823     -52.625    -200.893
  H     -364.949     -54.067    -201.049
  H     -358.966     -55.887    -202.550
  H     -360.349     -53.567    -204.952
  H     -359.064     -52.191    -202.502
  H     -365.502     -52.167    -202.294
  H     -357.717     -50.925    -204.099
  H     -364.321     -51.472    -203.355
  H     -357.136     -53.178    -205.638
  H     -355.788     -54.121    -203.830
  H     -355.592     -52.386    -203.823
  P     -358.295     -50.121    -206.464
  C     -358.631     -50.998    -208.893
  O     -359.005     -50.061    -207.901
  O     -356.778     -50.493    -206.814
  O     -358.394     -48.875    -205.648
  H     -356.236     -49.684    -206.881
  H     -359.404     -51.763    -208.966
  H     -357.666     -51.475    -208.658
  H     -358.542     -50.485    -209.850
  H     -354.249     -56.774    -200.920
  H     -354.190     -55.504    -199.722
  H     -353.436     -55.270    -201.280

 3  4  5  6  7  8  9  10  11  12  23  26  30  31 0
 6-311+G(2d,p)
 ****
 33  35  36  37  38 0
 6-311+G(2d,p)
 ****
 1  2  13  14  15  16  17  18  19  20  21  22  24  25 0
 3-21G
 ****
 27  28  29  32  34  39  40  41  42  43  44  45  46  47  48  49 0
 3-21G
 ****


