%nproc=1
%NoSave
%Mem=1900MB
#P OB98/GEN NMR

erre ene a

0 1
  C      162.630    -130.825     352.801
  O      162.620    -129.666     351.964
  P      161.289    -129.386     351.112
  C      161.229    -126.789     351.157
  O      161.532    -127.957     350.408
  C      161.244    -125.552     350.262
  O      162.615    -125.206     349.930
  C      160.539    -125.732     348.922
  O      159.120    -125.582     349.049
  C      161.145    -124.591     348.111
  O      160.467    -123.351     348.420
  C      162.593    -124.551     348.631
  N      164.697    -124.595     344.013
  C      163.751    -123.740     344.556
  N      163.327    -122.732     343.747
  N      163.270    -123.862     345.763
  C      163.807    -124.879     346.461
  C      164.744    -125.803     346.040
  C      165.245    -125.688     344.690
  O      166.027    -126.465     344.133
  N      165.067    -126.683     347.049
  C      164.349    -126.286     348.084
  N      163.552    -125.214     347.765
  O      160.189    -129.067     352.239
  O      160.860    -130.497     350.219
  H      160.985    -122.633     347.993
  H      159.297    -129.261     351.893
  H      165.054    -124.453     343.084
  H      164.381    -126.740     349.059
  H      162.923    -123.510     348.792
  H      161.058    -124.743     347.032
  H      163.759    -122.506     342.867
  H      160.799    -126.694     348.467
  H      162.670    -122.064     344.147
  H      160.813    -124.705     350.824
  H      161.984    -126.660     351.948
  H      160.249    -126.902     351.634
  P      158.227    -126.222     347.872
  C      156.035    -126.449     349.256
  O      156.733    -125.783     348.211
  O      158.256    -127.788     348.196
  O      158.724    -125.914     346.498
  H      158.123    -128.305     347.385
  H      156.716    -126.707     350.086
  H      155.581    -127.366     348.868
  H      155.246    -125.792     349.647
  H      163.570    -130.891     353.308
  H      162.486    -131.699     352.201
  H      161.841    -130.752     353.520

 3  4  5  6  7  8  9  10  11  12  23  26  30  31  33  0
 6-311+G(2d,p)
 ****
 35  36  37  38 0
 6-311+G(2d,p)
 ****
 1  2  13  14  15  16  17  18  19  20  21  22  24  25  27  28  29 0
 3-21G
 ****
 32  34  39  40  41  42  43  44  45  46  47  48  49 0
 3-21G
 ****


