%nproc=1
%NoSave
%Mem=1900MB
#P OB98/GEN NMR

erre ene a

0 1
  C     -253.597    -336.107     634.897
  O     -252.522    -336.871     635.409
  H     -253.218    -335.227     634.363
  H     -254.168    -336.722     634.194
  H     -254.256    -335.792     635.713
  P     -251.501    -336.106     636.378
  C     -249.691    -334.277     636.052
  O     -250.556    -335.215     635.431
  C     -248.529    -333.946     635.131
  O     -249.001    -333.242     633.953
  C     -247.461    -333.043     635.738
  O     -246.583    -333.757     636.596
  C     -246.752    -332.559     634.487
  O     -245.823    -333.559     634.036
  C     -247.902    -332.424     633.474
  N     -247.003    -327.865     631.288
  C     -246.324    -329.035     631.252
  N     -246.616    -330.198     631.869
  C     -247.754    -330.093     632.565
  C     -248.559    -328.969     632.706
  C     -248.136    -327.808     632.029
  N     -248.830    -326.618     632.092
  N     -249.649    -329.237     633.498
  C     -249.519    -330.504     633.838
  N     -248.377    -331.061     633.307
  O     -250.523    -337.272     636.887
  O     -252.128    -335.380     637.520
  H     -245.353    -333.890     634.823
  H     -250.271    -337.090     637.809
  H     -245.429    -329.028     630.645
  H     -250.212    -331.054     634.459
  H     -247.623    -332.810     632.491
  H     -246.186    -331.636     634.633
  H     -247.918    -332.183     636.251
  H     -248.078    -334.894     634.787
  H     -249.298    -334.705     636.982
  H     -248.596    -325.891     631.436
  H     -249.685    -326.588     632.640
  H     -250.257    -333.369     636.286
  P     -245.688    -332.898     637.624
  C     -243.524    -331.487     637.396
  O     -244.544    -332.220     636.721
  O     -244.898    -334.024     638.440
  O     -246.459    -331.986     638.522
  H     -244.646    -333.679     639.316
  H     -242.834    -331.093     636.679
  H     -243.006    -332.136     638.071
  H     -243.967    -330.682     637.945

 6  7  8  9  10  11  12  13  14  15  25  28  32  33  34  35 0
 6-311+G(2d,p)
 ****
 36  39  40 0
 6-311+G(2d,p)
 ****
 1  2  3  4  5  16  17  18  19  20  21  22  23  24 0
 3-21G
 ****
 26  27  29  30  31  37  38  41  42  43  44  45  46  47  48 0
 3-21G
 ****


