%nproc=1
%NoSave
%Mem=1900MB
#P OB98/GEN NMR

erre ene a

0 1
  C     -882.045     -53.960    -503.748
  O     -882.759     -54.501    -504.845
  P     -882.002     -55.362    -505.965
  C     -880.731     -53.538    -507.257
  O     -881.856     -54.394    -507.232
  C     -880.471     -53.002    -508.674
  O     -880.000     -54.063    -509.534
  C     -881.717     -52.435    -509.355
  O     -882.017     -51.156    -508.857
  C     -881.284     -52.467    -510.810
  O     -880.496     -51.318    -511.133
  C     -880.433     -53.753    -510.883
  N     -881.153     -54.873    -511.477
  C     -881.218     -54.870    -512.877
  O     -880.725     -53.953    -513.529
  N     -881.905     -55.886    -513.501
  C     -882.488     -56.814    -512.786
  N     -883.153     -57.793    -513.470
  C     -882.466     -56.825    -511.312
  C     -881.786     -55.833    -510.735
  O     -882.609     -56.704    -506.247
  O     -880.505     -55.446    -505.405
  H     -880.121     -51.484    -512.045
  H     -880.439     -56.073    -504.647
  H     -882.968     -57.612    -510.763
  H     -881.718     -55.765    -509.649
  H     -879.528     -53.575    -511.465
  H     -882.145     -52.473    -511.496
  H     -882.559     -53.131    -509.205
  H     -879.688     -52.221    -508.612
  H     -883.171     -57.713    -514.479
  H     -879.852     -54.118    -506.932
  H     -883.651     -58.524    -513.016
  H     -880.872     -52.720    -506.556
  P     -883.441     -50.884    -508.164
  C     -884.745     -50.145    -510.281
  O     -884.184     -49.736    -509.017
  O     -883.427     -50.653    -506.699
  O     -884.284     -52.200    -508.529
  H     -884.777     -52.495    -507.737
  H     -885.474     -49.397    -510.579
  H     -885.220     -51.123    -510.196
  H     -883.936     -50.182    -511.011
  H     -882.719     -53.422    -503.114
  H     -881.287     -53.296    -504.108
  H     -881.590     -54.753    -503.193

 3  4  5  6  7  8  9  10  11  12  13  23  27  28  29  30  32 0
 6-311+G(2d,p)
 ****
 34  35 0
 6-311+G(2d,p)
 ****
 1  2  14  15  16  17  18  19  20  21  22  24  25  26 0
 3-21G
 ****
 31  33  36  37  38  39  40  41  42  43  44  45  46 0
 3-21G
 ****


