%nproc=1
%NoSave
%Mem=1900MB
#P OB98/GEN NMR

erre ene a

0 1
  C      -26.966      12.486    -140.022
  O      -28.227      13.127    -139.819
  P      -28.214      14.497    -138.983
  C      -29.970      15.659    -140.495
  O      -29.627      15.233    -139.185
  C      -31.222      16.543    -140.497
  O      -32.407      15.766    -140.186
  C      -31.159      17.695    -139.492
  O      -31.860      18.802    -140.063
  C      -31.957      17.168    -138.316
  O      -32.419      18.230    -137.486
  C      -33.054      16.379    -139.050
  N      -33.714      15.388    -138.204
  C      -34.873      15.790    -137.539
  O      -35.262      16.958    -137.622
  N      -35.544      14.880    -136.764
  C      -35.066      13.683    -136.619
  N      -35.774      12.826    -135.833
  C      -33.813      13.231    -137.254
  C      -33.200      14.125    -138.026
  O      -27.186      15.417    -139.793
  O      -27.787      14.324    -137.561
  H      -31.639      18.635    -137.049
  H      -26.532      15.806    -139.182
  H      -33.442      12.230    -137.090
  H      -32.277      13.887    -138.535
  H      -33.826      17.059    -139.433
  H      -31.339      16.493    -137.710
  H      -30.138      17.996    -139.238
  H      -31.352      16.946    -141.510
  H      -36.634      13.170    -135.422
  H      -30.147      14.789    -141.132
  H      -35.495      11.874    -135.653
  H      -29.116      16.186    -140.933
  P      -31.080      20.191    -140.230
  C      -31.538      20.128    -142.757
  O      -31.702      20.853    -141.554
  O      -29.651      19.696    -140.766
  O      -30.935      21.076    -139.039
  H      -29.047      20.456    -140.845
  H      -32.108      20.625    -143.546
  H      -31.910      19.107    -142.642
  H      -30.482      20.115    -143.044
  H      -27.109      11.590    -140.589
  H      -26.533      12.243    -139.074
  H      -26.313      13.145    -140.555

 3  4  5  6  7  8  9  10  11  12  13  21  23  27  28  29  30  32 0
 6-311+G(2d,p)
 ****
 34  35 0
 6-311+G(2d,p)
 ****
 1  2  14  15  16  17  18  19  20  22  24  25  26 0
 3-21G
 ****
 31  33  36  37  38  39  40  41  42  43  44  45  46 0
 3-21G
 ****


