%nproc=1
%NoSave
%Mem=1900MB
#P OB98/GEN NMR

erre ene a

0 1
  C     -232.053      38.016       9.185
  O     -233.047      38.851       8.624
  H     -232.095      38.065      10.276
  H     -232.239      36.985       8.870
  H     -231.062      38.319       8.835
  P     -232.953      40.411       8.989
  C     -234.132      42.004      10.653
  O     -234.016      40.675      10.167
  C     -234.462      41.988      12.145
  O     -235.690      41.236      12.327
  C     -233.373      41.349      13.024
  O     -233.045      42.206      14.127
  C     -234.026      40.091      13.568
  O     -233.606      39.773      14.889
  C     -235.511      40.432      13.503
  N     -237.064      36.354      16.141
  C     -236.565      37.537      16.545
  N     -236.260      38.618      15.801
  C     -236.556      38.403      14.502
  C     -237.092      37.251      13.945
  C     -237.330      36.179      14.821
  N     -237.789      34.953      14.403
  N     -237.250      37.397      12.578
  C     -236.773      38.600      12.313
  N     -236.332      39.239      13.441
  O     -233.614      41.126       7.716
  O     -231.568      40.908       9.239
  H     -233.763      40.559      15.443
  H     -232.948      41.704       7.297
  H     -236.377      37.631      17.614
  H     -236.686      39.034      11.325
  H     -235.831      41.025      14.367
  H     -233.783      39.247      12.911
  H     -232.466      41.116      12.462
  H     -234.665      43.016      12.471
  H     -234.935      42.524      10.116
  H     -237.821      34.205      15.079
  H     -237.883      34.786      13.408
  H     -233.190      42.535      10.478
  P     -231.816      43.217      13.896
  C     -229.251      43.071      14.305
  O     -230.549      42.651      14.710
  O     -232.256      44.518      14.719
  O     -231.560      43.539      12.462
  H     -232.256      45.297      14.131
  H     -228.516      42.615      14.935
  H     -229.179      44.136      14.386
  H     -229.082      42.778      13.290

 6  7  8  9  10  11  12  13  14  15  25  28  32  33  34  35 0
 6-311+G(2d,p)
 ****
 36  39  40 0
 6-311+G(2d,p)
 ****
 1  2  3  4  5  16  17  18  19  20  21  22  23  24 0
 3-21G
 ****
 26  27  29  30  31  37  38  41  42  43  44  45  46  47  48 0
 3-21G
 ****


