%nproc=1
%NoSave
%Mem=1900MB
#P OB98/GEN NMR

erre ene a

0 1
  C      -39.526      39.166      -3.523
  O      -40.081      39.965      -2.496
  P      -40.757      39.292      -1.212
  C      -42.994      39.680      -2.398
  O      -42.290      39.772      -1.166
  C      -44.503      39.787      -2.184
  O      -45.169      39.739      -3.475
  C      -45.108      38.675      -1.316
  O      -46.187      39.264      -0.584
  C      -45.662      37.708      -2.349
  O      -46.664      36.848      -1.822
  C      -46.159      38.692      -3.403
  N      -49.501      36.648      -6.685
  C      -49.650      37.125      -5.432
  N      -48.706      37.629      -4.613
  C      -47.503      37.615      -5.208
  C      -47.191      37.132      -6.468
  C      -48.263      36.643      -7.235
  N      -48.135      36.185      -8.528
  N      -45.832      37.237      -6.701
  C      -45.339      37.773      -5.604
  N      -46.321      38.077      -4.702
  O      -40.012      39.470       0.068
  O      -40.874      37.745      -1.602
  H      -46.271      36.322      -1.100
  H      -40.205      37.229      -1.112
  H      -50.662      37.104      -5.036
  H      -44.293      37.960      -5.411
  H      -47.116      39.148      -3.123
  H      -44.851      37.082      -2.739
  H      -44.393      38.201      -0.638
  H      -44.717      40.771      -1.748
  H      -42.762      38.710      -2.849
  H      -48.985      35.983      -9.029
  H      -47.291      36.414      -9.048
  H      -42.653      40.467      -3.080
  P      -46.300      39.031       0.998
  C      -47.940      37.076       1.189
  O      -47.777      38.480       1.272
  O      -45.879      40.185       1.845
  O      -45.380      37.742       1.251
  H      -45.157      37.684       2.200
  H      -48.033      36.782       0.140
  H      -48.851      36.791       1.721
  H      -47.090      36.554       1.637
  H      -39.125      39.797      -4.289
  H      -40.288      38.540      -3.939
  H      -38.745      38.557      -3.118

 3  4  5  6  7  8  9  10  11  12  22  25  29  30  31  32 0
 6-311+G(2d,p)
 ****
 33  36  37 0
 6-311+G(2d,p)
 ****
 1  2  13  14  15  16  17  18  19  20  21  23  24  26 0
 3-21G
 ****
 27  28  34  35  38  39  40  41  42  43  44  45  46  47  48 0
 3-21G
 ****


