%nproc=1
%NoSave
%Mem=1900MB
#P OB98/GEN NMR

erre ene a

0 1
  C       -1.909       9.377     -38.414
  O       -0.933       8.376     -38.216
  H       -1.404      10.331     -38.586
  H       -2.535       9.470     -37.523
  H       -2.533       9.152     -39.283
  P       -1.389       6.840     -38.209
  C       -1.365       5.882     -40.603
  O       -0.617       6.127     -39.421
  C       -0.506       5.166     -41.649
  O        0.555       6.073     -42.078
  C        0.173       3.882     -41.130
  O        0.275       2.976     -42.237
  C        1.536       4.413     -40.732
  O        2.461       3.379     -40.521
  C        1.798       5.365     -41.901
  N        2.906       6.282     -41.670
  C        4.192       5.802     -41.892
  O        4.440       4.665     -42.290
  N        5.209       6.680     -41.628
  C        5.067       7.956     -41.170
  O        6.012       8.708     -40.970
  C        3.684       8.398     -40.926
  C        2.683       7.554     -41.184
  O       -2.860       6.601     -38.170
  O       -0.660       6.236     -36.917
  H       -1.285       6.215     -36.169
  H        3.288       3.731     -40.129
  H        6.148       6.348     -41.784
  H        3.539       9.398     -40.541
  H        1.651       7.844     -41.014
  H        1.983       4.804     -42.823
  H        1.466       4.967     -39.791
  H       -0.381       3.405     -40.317
  H       -1.122       4.959     -42.532
  H       -1.704       6.845     -40.999
  H       -2.239       5.271     -40.356
  P       -0.348       1.496     -42.225
  C       -2.663       1.420     -43.357
  O       -1.259       1.292     -43.531
  O       -1.052       1.154     -40.953
  O        0.891       0.511     -42.464
  H        0.755      -0.306     -41.947
  H       -3.154       1.263     -44.294
  H       -2.890       2.401     -42.996
  H       -3.003       0.692     -42.650

 6  7  8  9  10  11  12  13  14  15  16  27  31  32  33  34  35 0
 6-311+G(2d,p)
 ****
 36  37 0
 6-311+G(2d,p)
 ****
 1  2  3  4  5  17  18  19  20  21  22  23  24  25 0
 3-21G
 ****
 26  28  29  30  38  39  40  41  42  43  44  45 0
 3-21G
 ****


