%nproc=1
%NoSave
%Mem=1900MB
#P OB98/GEN NMR

erre ene a

0 1
  C      571.272    -605.438    -239.574
  O      570.067    -605.644    -240.318
  P      570.094    -606.657    -241.562
  C      568.429    -608.137    -242.860
  O      568.600    -607.184    -241.812
  C      567.108    -608.890    -242.696
  O      567.162    -609.842    -241.617
  C      565.932    -607.972    -242.372
  O      565.526    -607.239    -243.515
  C      564.919    -608.971    -241.833
  O      564.215    -609.619    -242.912
  C      565.816    -609.997    -241.108
  N      565.782    -609.859    -239.656
  C      564.746    -610.534    -238.997
  O      563.916    -611.166    -239.640
  N      564.688    -610.471    -237.626
  C      565.569    -609.784    -236.978
  N      565.457    -609.750    -235.617
  C      566.677    -609.036    -237.620
  C      566.713    -609.117    -238.955
  O      571.144    -607.717    -241.509
  O      570.325    -605.679    -242.813
  H      563.510    -610.158    -242.488
  H      570.822    -606.170    -243.509
  H      567.391    -608.485    -237.040
  H      567.482    -608.595    -239.528
  H      565.507    -611.015    -241.358
  H      564.164    -608.496    -241.201
  H      566.225    -607.276    -241.569
  H      566.910    -609.422    -243.642
  H      564.693    -610.254    -235.195
  H      569.261    -608.848    -242.842
  H      566.124    -609.287    -235.019
  H      568.476    -607.614    -243.825
  P      565.682    -605.646    -243.475
  C      566.497    -604.017    -245.327
  O      565.684    -605.121    -244.988
  O      567.203    -605.455    -243.014
  O      564.747    -604.942    -242.544
  H      567.290    -604.648    -242.467
  H      566.626    -603.991    -246.397
  H      567.490    -604.103    -244.850
  H      566.028    -603.092    -244.997
  H      571.088    -604.740    -238.784
  H      572.030    -605.051    -240.223
  H      571.599    -606.369    -239.159

 3  4  5  6  7  8  9  10  11  12  13  23  27  28  29  30  32 0
 6-311+G(2d,p)
 ****
 34  35 0
 6-311+G(2d,p)
 ****
 1  2  14  15  16  17  18  19  20  21  22  24  25  26 0
 3-21G
 ****
 31  33  36  37  38  39  40  41  42  43  44  45  46 0
 3-21G
 ****


