%nproc=1
%NoSave
%Mem=1900MB
#P OB98/GEN NMR

erre ene a

0 1
  C      556.490     143.220     688.564
  O      555.917     143.304     689.857
  H      555.970     142.443     688.002
  H      557.549     142.964     688.634
  H      556.372     144.178     688.044
  P      556.615     144.322     690.884
  C      557.405     142.427     692.497
  O      557.774     143.435     691.566
  C      558.400     142.396     693.657
  O      559.755     142.479     693.168
  C      558.258     143.564     694.634
  O      557.172     143.416     695.528
  C      559.593     143.474     695.341
  O      559.583     142.356     696.257
  C      560.541     143.204     694.149
  N      561.080     144.437     693.572
  C      562.089     145.074     694.301
  O      562.483     144.626     695.379
  N      562.614     146.255     693.814
  C      562.189     146.736     692.681
  N      562.739     147.900     692.251
  C      561.145     146.081     691.877
  C      560.642     144.951     692.373
  O      555.540     144.450     692.064
  O      557.071     145.621     690.316
  H      558.937     142.580     696.961
  H      555.931     144.944     692.828
  H      560.812     146.526     690.945
  H      559.871     144.415     691.835
  H      561.376     142.559     694.449
  H      559.837     144.358     695.931
  H      558.200     144.526     694.113
  H      558.288     141.432     694.165
  H      563.415     148.355     692.862
  H      557.411     141.459     691.973
  H      562.373     148.427     691.473
  H      556.398     142.617     692.884
  P      556.512     144.756     696.122
  C      557.939     144.691     698.307
  O      557.586     145.401     697.117
  O      555.379     144.205     697.111
  O      555.952     145.682     695.091
  H      554.607     144.797     697.118
  H      558.663     145.255     698.857
  H      558.352     143.739     698.045
  H      557.066     144.548     698.909

 6  7  8  9  10  11  12  13  14  15  16  26  30  31  32  33  35 0
 6-311+G(2d,p)
 ****
 37  38 0
 6-311+G(2d,p)
 ****
 1  2  3  4  5  17  18  19  20  21  22  23  24  25 0
 3-21G
 ****
 27  28  29  34  36  39  40  41  42  43  44  45  46 0
 3-21G
 ****


