%nproc=1
%NoSave
%Mem=1900MB
#P OB98/GEN NMR

erre ene a

0 1
  C      -55.081      62.995     -48.453
  O      -54.691      61.641     -48.317
  P      -53.943      60.897     -49.521
  C      -56.246      59.993     -50.328
  O      -55.037      60.639     -50.665
  C      -57.208      59.960     -51.524
  O      -57.280      61.300     -52.072
  C      -56.768      59.062     -52.676
  O      -57.903      58.797     -53.504
  C      -55.799      59.958     -53.417
  O      -55.592      59.535     -54.761
  C      -56.442      61.357     -53.252
  N      -55.420      62.411     -53.103
  C      -54.797      62.853     -54.268
  O      -55.118      62.461     -55.389
  N      -53.735      63.698     -54.092
  C      -53.226      64.087     -52.888
  O      -52.112      64.579     -52.742
  C      -54.065      63.784     -51.717
  C      -55.096      62.949     -51.871
  O      -53.665      59.440     -48.920
  O      -52.689      61.556     -49.984
  H      -55.000      60.203     -55.182
  H      -52.758      59.389     -48.565
  H      -53.194      63.903     -54.925
  H      -53.778      64.203     -50.761
  H      -55.702      62.666     -51.014
  H      -57.068      61.615     -54.116
  H      -54.826      59.929     -52.909
  H      -56.301      58.125     -52.362
  H      -58.211      59.682     -51.177
  H      -56.706      60.506     -49.478
  H      -56.051      58.965     -50.001
  P      -58.038      57.332     -54.146
  C      -57.074      58.319     -56.313
  O      -56.993      57.275     -55.362
  O      -59.423      56.884     -54.467
  O      -57.347      56.392     -53.045
  H      -57.630      55.468     -53.177
  H      -56.082      58.481     -56.745
  H      -57.419      59.251     -55.858
  H      -57.763      58.026     -57.110
  H      -55.563      63.319     -47.554
  H      -55.759      63.090     -49.276
  H      -54.216      63.599     -48.632

 3  4  5  6  7  8  9  10  11  12  13  23  28  29  30  31  32 0
 6-311+G(2d,p)
 ****
 33  34 0
 6-311+G(2d,p)
 ****
 1  2  14  15  16  17  18  19  20  21  22  24  25  26  27 0
 3-21G
 ****
 35  36  37  38  39  40  41  42  43  44  45 0
 3-21G
 ****


