%nproc=1
%NoSave
%Mem=1900MB
#P OB98/GEN NMR

erre ene a

0 1
  C      -76.373      -5.105     -57.219
  O      -76.341      -4.463     -58.473
  P      -75.180      -4.669     -59.545
  C      -74.161      -6.685     -60.859
  O      -74.977      -6.241     -59.783
  C      -73.285      -7.872     -60.432
  O      -72.285      -7.393     -59.497
  C      -74.106      -8.945     -59.699
  O      -73.772     -10.279     -60.060
  C      -73.942      -8.557     -58.235
  O      -74.218      -9.615     -57.332
  C      -72.516      -8.016     -58.216
  N      -69.093      -6.240     -54.909
  C      -68.903      -7.076     -55.992
  N      -67.685      -7.650     -56.092
  N      -69.836      -7.347     -56.867
  C      -71.033      -6.790     -56.572
  C      -71.340      -5.945     -55.531
  C      -70.293      -5.628     -54.591
  O      -70.445      -4.983     -53.553
  N      -72.673      -5.630     -55.506
  C      -73.183      -6.311     -56.513
  N      -72.231      -7.057     -57.169
  O      -73.962      -3.819     -59.384
  O      -75.914      -4.216     -60.910
  H      -74.296      -9.229     -56.441
  H      -75.236      -3.793     -61.474
  H      -68.355      -6.133     -54.223
  H      -74.230      -6.325     -56.791
  H      -71.786      -8.818     -58.098
  H      -74.665      -7.761     -58.023
  H      -66.998      -7.577     -55.355
  H      -75.165      -8.869     -59.969
  H      -67.600      -8.446     -56.719
  H      -72.762      -8.268     -61.308
  H      -73.531      -5.834     -61.141
  H      -74.775      -6.950     -61.724
  P      -74.675     -11.592     -59.985
  C      -76.984     -12.329     -60.823
  O      -76.143     -11.234     -60.514
  O      -74.913     -11.845     -58.424
  O      -74.069     -12.802     -60.617
  H      -74.874     -12.803     -58.239
  H      -77.826     -11.967     -61.419
  H      -77.368     -12.769     -59.899
  H      -76.442     -13.087     -61.396
  H      -77.250      -4.803     -56.686
  H      -75.503      -4.834     -56.657
  H      -76.390      -6.165     -57.361

 3  4  5  6  7  8  9  10  11  12  23  26  30  31 0
 6-311+G(2d,p)
 ****
 33  35  36  37  38 0
 6-311+G(2d,p)
 ****
 1  2  13  14  15  16  17  18  19  20  21  22  24  25 0
 3-21G
 ****
 27  28  29  32  34  39  40  41  42  43  44  45  46  47  48  49 0
 3-21G
 ****


