%nproc=1
%NoSave
%Mem=1900MB
#P OB98/GEN NMR

erre ene a

0 1
  C       70.878      76.833    -276.855
  O       71.357      77.745    -275.884
  P       72.946      77.992    -275.837
  C       74.509      79.374    -274.265
  O       73.193      79.124    -274.732
  C       74.499      80.566    -273.307
  O       74.232      81.787    -274.028
  C       73.440      80.480    -272.213
  O       73.893      79.661    -271.149
  C       73.275      81.947    -271.834
  O       74.320      82.367    -270.937
  C       73.406      82.645    -273.196
  N       69.513      85.850    -273.556
  C       70.558      85.821    -272.652
  N       70.593      86.816    -271.741
  N       71.486      84.901    -272.645
  C       71.317      83.961    -273.604
  C       70.316      83.874    -274.546
  C       69.327      84.927    -274.575
  O       68.440      85.054    -275.414
  N       70.466      82.765    -275.337
  C       71.572      82.201    -274.893
  N       72.139      82.899    -273.858
  O       73.239      78.727    -277.224
  O       73.774      76.760    -275.651
  H       74.201      83.311    -270.722
  H       73.575      78.096    -277.887
  H       68.838      86.595    -273.524
  H       72.012      81.305    -275.302
  H       73.919      83.610    -273.117
  H       72.329      82.135    -271.320
  H       69.900      87.544    -271.671
  H       72.499      80.096    -272.623
  H       71.349      86.808    -271.067
  H       75.498      80.651    -272.865
  H       75.154      79.603    -275.117
  H       74.888      78.478    -273.764
  P       72.783      79.046    -270.169
  C       72.546      76.859    -268.786
  O       73.261      77.567    -269.781
  O       71.530      78.803    -271.134
  O       72.419      79.921    -269.017
  H       70.703      78.978    -270.648
  H       72.617      75.790    -269.000
  H       71.491      77.149    -268.762
  H       72.999      77.059    -267.812
  H       69.813      76.760    -276.781
  H       71.314      75.871    -276.686
  H       71.145      77.179    -277.832

 3  4  5  6  7  8  9  10  11  12  23  26  30  31 0
 6-311+G(2d,p)
 ****
 33  35  36  37  38 0
 6-311+G(2d,p)
 ****
 1  2  13  14  15  16  17  18  19  20  21  22  24  25 0
 3-21G
 ****
 27  28  29  32  34  39  40  41  42  43  44  45  46  47  48  49 0
 3-21G
 ****


