%nproc=1
%NoSave
%Mem=1900MB
#P OB98/GEN NMR

erre ene a

0 1
  C     -816.366    -392.059    -703.509
  O     -817.095    -391.042    -704.169
  P     -816.366    -390.036    -705.175
  C     -816.339    -391.408    -707.341
  O     -815.563    -390.922    -706.255
  C     -815.497    -391.529    -708.609
  O     -814.981    -390.212    -708.971
  C     -814.283    -392.470    -708.489
  O     -814.110    -393.073    -709.780
  C     -813.133    -391.514    -708.229
  O     -811.869    -392.071    -708.542
  C     -813.549    -390.333    -709.108
  N     -809.768    -387.068    -710.164
  C     -810.109    -388.250    -710.712
  N     -811.114    -389.076    -710.354
  C     -811.807    -388.567    -709.328
  C     -811.556    -387.385    -708.642
  C     -810.485    -386.604    -709.112
  N     -810.142    -385.377    -708.586
  N     -812.450    -387.234    -707.601
  C     -813.221    -388.300    -707.654
  N     -812.909    -389.102    -708.716
  O     -815.555    -388.965    -704.525
  O     -817.563    -389.416    -706.040
  H     -811.228    -391.344    -708.647
  H     -817.730    -388.493    -705.758
  H     -809.501    -388.583    -711.553
  H     -814.009    -388.542    -706.953
  H     -813.327    -390.510    -710.163
  H     -813.132    -391.233    -707.163
  H     -814.393    -393.232    -707.719
  H     -816.152    -391.849    -709.431
  H     -817.157    -390.708    -707.513
  H     -809.449    -384.841    -709.084
  H     -810.813    -384.889    -707.992
  H     -816.767    -392.376    -707.083
  P     -814.154    -394.673    -709.925
  C     -816.499    -395.113    -710.850
  O     -815.673    -395.110    -709.695
  O     -813.143    -395.414    -709.107
  O     -813.936    -394.914    -711.495
  H     -813.665    -395.834    -711.646
  H     -816.828    -394.090    -711.062
  H     -817.370    -395.740    -710.662
  H     -815.963    -395.501    -711.719
  H     -817.026    -392.623    -702.884
  H     -815.599    -391.616    -702.909
  H     -815.921    -392.708    -704.235

 3  4  5  6  7  8  9  10  11  12  22  25  29  30  31  32 0
 6-311+G(2d,p)
 ****
 33  36  37 0
 6-311+G(2d,p)
 ****
 1  2  13  14  15  16  17  18  19  20  21  23  24  26 0
 3-21G
 ****
 27  28  34  35  38  39  40  41  42  43  44  45  46  47  48 0
 3-21G
 ****


