%nproc=1
%NoSave
%Mem=1900MB
#P OB98/GEN NMR

erre ene a

0 1
  C     -921.821     588.295    -655.858
  O     -921.606     588.203    -657.252
  H     -922.857     588.003    -655.650
  H     -921.680     589.324    -655.519
  H     -921.151     587.626    -655.317
  P     -920.131     588.489    -657.823
  C     -919.910     586.201    -658.987
  O     -919.414     587.057    -657.969
  C     -920.884     585.180    -658.400
  O     -922.057     585.872    -657.895
  C     -921.361     584.135    -659.413
  O     -921.472     582.871    -658.751
  C     -922.743     584.625    -659.805
  O     -923.590     583.565    -660.248
  C     -923.220     585.293    -658.515
  N     -928.191     586.126    -658.870
  C     -927.496     584.986    -658.510
  N     -928.235     583.890    -658.224
  N     -926.191     584.920    -658.440
  C     -925.578     586.089    -658.738
  C     -926.145     587.282    -659.108
  C     -927.592     587.336    -659.198
  O     -928.256     588.316    -659.520
  N     -925.183     588.231    -659.364
  C     -924.039     587.614    -659.140
  N     -924.227     586.309    -658.770
  O     -919.340     589.505    -657.067
  O     -920.381     588.929    -659.337
  H     -923.052     583.000    -660.835
  H     -920.336     589.899    -659.427
  H     -929.185     586.117    -658.921
  H     -923.064     588.056    -659.241
  H     -923.661     584.570    -657.814
  H     -922.655     585.358    -660.616
  H     -929.240     583.872    -658.244
  H     -920.693     584.039    -660.276
  H     -927.755     583.046    -657.933
  H     -920.401     584.694    -657.539
  H     -919.064     585.687    -659.449
  H     -920.418     586.805    -659.748
  P     -920.174     582.251    -658.040
  C     -921.184     581.075    -655.976
  O     -920.446     582.198    -656.455
  O     -918.870     582.848    -658.439
  O     -920.254     580.697    -658.453
  H     -919.345     580.345    -658.502
  H     -921.300     581.151    -654.915
  H     -920.657     580.174    -656.214
  H     -922.148     581.058    -656.440

 6  7  8  9  10  11  12  13  14  15  26  29  33  34 0
 6-311+G(2d,p)
 ****
 36  38  39  40  41 0
 6-311+G(2d,p)
 ****
 1  2  3  4  5  16  17  18  19  20  21  22  23  24  25 0
 3-21G
 ****
 27  28  30  31  32  35  37  42  43  44  45  46  47 0
 3-21G
 ****
 48  49 0
 3-21G
 ****


