%nproc=1
%NoSave
%Mem=1900MB
#P OB98/GEN NMR

erre ene a

0 1
  C      -88.496     137.212     240.885
  O      -89.653     137.521     240.129
  P      -90.928     138.087     240.921
  C      -92.385     136.319     239.669
  O      -92.048     136.939     240.905
  C      -92.501     134.802     239.866
  O      -91.369     134.311     240.624
  C      -93.735     134.380     240.654
  O      -94.892     134.388     239.837
  C      -93.333     132.995     241.133
  O      -93.574     132.008     240.111
  C      -91.821     133.165     241.378
  N      -91.497     133.282     242.795
  C      -91.575     132.106     243.539
  O      -91.923     131.027     243.052
  N      -91.288     132.219     244.869
  C      -90.986     133.377     245.536
  O      -90.788     133.420     246.738
  C      -90.938     134.591     244.700
  C      -91.201     134.489     243.395
  O      -91.524     139.204     239.937
  O      -90.627     138.640     242.271
  H      -93.238     131.159     240.459
  H      -91.887     139.947     240.458
  H      -91.317     131.379     245.425
  H      -90.708     135.525     245.197
  H      -91.192     135.376     242.772
  H      -91.277     132.306     240.972
  H      -93.901     132.684     242.016
  H      -93.867     135.034     241.524
  H      -92.485     134.323     238.880
  H      -91.613     136.537     238.927
  H      -93.333     136.731     239.311
  P      -96.012     135.481     240.172
  C      -97.310     133.607     241.456
  O      -96.775     134.917     241.465
  O      -97.034     135.260     238.958
  O      -95.464     136.872     240.279
  H      -97.050     134.330     238.664
  H      -96.674     132.923     240.892
  H      -98.308     133.627     241.026
  H      -97.375     133.250     242.492
  H      -87.730     136.848     240.232
  H      -88.734     136.462     241.610
  H      -88.150     138.093     241.384

 3  4  5  6  7  8  9  10  11  12  13  23  28  29  30  31  32 0
 6-311+G(2d,p)
 ****
 33  34 0
 6-311+G(2d,p)
 ****
 1  2  14  15  16  17  18  19  20  21  22  24  25  26 0
 3-21G
 ****
 27  35  36  37  38  39  40  41  42  43  44  45 0
 3-21G
 ****


