%nproc=1
%NoSave
%Mem=1900MB
#P OB98/GEN NMR

erre ene a

0 1
  C      881.218     898.453    2099.865
  O      880.716     899.679    2099.332
  P      880.165     899.881    2097.834
  C      877.621     899.692    2098.531
  O      878.711     899.215    2097.760
  C      876.312     899.014    2098.136
  O      876.120     899.183    2096.680
  C      876.316     897.483    2098.401
  O      875.096     897.017    2098.939
  C      876.757     896.907    2097.073
  O      876.413     895.523    2096.897
  C      876.120     897.883    2096.084
  N      876.965     895.641    2091.535
  C      876.268     895.175    2092.634
  N      875.757     893.913    2092.551
  N      876.129     895.822    2093.748
  C      876.774     897.006    2093.750
  C      877.487     897.624    2092.720
  C      877.595     896.884    2091.498
  O      878.175     897.257    2090.486
  N      877.997     898.851    2093.112
  C      877.579     898.980    2094.335
  N      876.832     897.936    2094.804
  O      881.121     899.594    2096.720
  O      879.831     901.473    2097.813
  H      876.840     895.254    2096.047
  H      879.980     901.745    2096.881
  H      877.025     895.082    2090.688
  H      877.803     899.873    2094.959
  H      875.080     897.623    2095.834
  H      877.854     896.969    2097.003
  H      875.921     893.302    2091.738
  H      877.049     897.241    2099.172
  H      875.468     893.486    2093.433
  H      875.468     899.526    2098.649
  H      877.586     900.750    2098.368
  H      877.843     899.545    2099.600
  P      874.640     896.910    2100.503
  C      873.218     899.043    2100.782
  O      874.488     898.410    2101.042
  O      875.977     896.415    2101.267
  O      873.486     896.005    2100.749
  H      875.759     895.582    2101.696
  H      873.336     900.135    2100.965
  H      872.454     898.647    2101.457
  H      872.948     898.923    2099.741
  H      881.516     898.602    2100.882
  H      882.061     898.132    2099.289
  H      880.453     897.706    2099.823

 3  4  5  6  7  8  9  10  11  12  23  26  30  31 0
 6-311+G(2d,p)
 ****
 33  35  36  37  38 0
 6-311+G(2d,p)
 ****
 1  2  13  14  15  16  17  18  19  20  21  22  24  25 0
 3-21G
 ****
 27  28  29  32  34  39  40  41  42  43  44  45  46  47  48  49 0
 3-21G
 ****


