%nproc=1
%NoSave
%Mem=1900MB
#P OB98/GEN NMR

erre ene a

0 1
  C      137.457     126.308      91.985
  O      136.958     125.279      91.156
  H      137.255     126.045      93.027
  H      136.962     127.255      91.761
  H      138.538     126.411      91.856
  P      137.068     125.450      89.567
  C      139.349     125.451      88.359
  O      138.408     124.693      89.112
  C      140.228     124.516      87.519
  O      140.934     123.639      88.431
  C      139.408     123.650      86.553
  O      139.862     123.732      85.204
  C      139.419     122.278      87.218
  O      139.259     121.191      86.330
  C      140.739     122.280      87.995
  N      140.757     121.365      89.134
  C      141.868     120.538      89.270
  O      142.843     120.534      88.523
  N      141.838     119.681      90.341
  C      140.835     119.569      91.255
  O      140.868     118.786      92.196
  C      139.679     120.453      91.044
  C      139.691     121.296      90.009
  O      136.936     126.845      89.056
  O      135.910     124.504      88.995
  H      138.391     121.293      85.888
  H      135.146     125.049      88.726
  H      142.643     119.085      90.456
  H      138.858     120.383      91.744
  H      138.856     121.966      89.825
  H      141.569     122.012      87.342
  H      138.585     122.237      87.929
  H      138.373     124.006      86.491
  H      140.976     125.116      86.991
  H      139.963     126.020      89.063
  H      138.818     126.149      87.703
  P      139.036     124.391      84.007
  C      137.616     126.591      83.886
  O      138.775     125.928      84.367
  O      137.869     123.602      83.518
  O      140.114     124.459      82.808
  H      139.612     124.342      81.975
  H      137.617     127.605      84.229
  H      136.743     126.092      84.251
  H      137.615     126.576      82.816

 6  7  8  9  10  11  12  13  14  15  16  26  31  32  33  34  35 0
 6-311+G(2d,p)
 ****
 36  37 0
 6-311+G(2d,p)
 ****
 1  2  3  4  5  17  18  19  20  21  22  23  24  25 0
 3-21G
 ****
 27  28  29  30  38  39  40  41  42  43  44  45 0
 3-21G
 ****


