%nproc=1
%NoSave
%Mem=1900MB
#P OB98/GEN NMR

erre ene a

0 1
  C      406.788     105.192    -514.744
  O      407.277     105.479    -516.053
  P      406.253     105.434    -517.284
  C      406.741     107.968    -517.879
  O      405.814     106.918    -517.679
  C      406.352     108.748    -519.143
  O      406.333     107.870    -520.297
  C      404.967     109.392    -519.055
  O      405.015     110.667    -518.447
  C      404.546     109.435    -520.513
  O      405.198     110.526    -521.192
  C      405.088     108.079    -521.022
  N      404.234     106.879    -520.856
  C      402.953     106.865    -521.394
  O      402.448     107.799    -522.016
  N      402.231     105.713    -521.213
  C      402.710     104.537    -520.711
  O      402.044     103.513    -520.621
  C      404.117     104.557    -520.295
  C      404.797     105.706    -520.372
  O      404.926     104.801    -516.650
  O      406.738     104.654    -518.464
  H      404.935     110.479    -522.126
  H      404.731     103.938    -517.059
  H      401.277     105.705    -521.534
  H      404.553     103.634    -519.933
  H      405.840     105.732    -520.063
  H      405.342     108.141    -522.087
  H      403.475     109.614    -520.607
  H      404.275     108.730    -518.524
  H      407.107     109.521    -519.326
  H      407.755     107.578    -517.984
  H      406.737     108.629    -517.014
  P      404.031     111.012    -517.229
  C      406.167     111.199    -515.826
  O      404.855     110.679    -515.892
  O      402.665     110.408    -517.304
  O      403.985     112.609    -517.218
  H      403.197     112.940    -517.708
  H      406.564     111.044    -514.817
  H      406.164     112.275    -516.039
  H      406.815     110.683    -516.539
  H      407.590     105.264    -514.040
  H      406.383     104.202    -514.724
  H      406.024     105.895    -514.487

 3  4  5  6  7  8  9  10  11  12  13  23  28  29  30  31  32 0
 6-311+G(2d,p)
 ****
 33  34 0
 6-311+G(2d,p)
 ****
 1  2  14  15  16  17  18  19  20  21  22  24  25  26  27 0
 3-21G
 ****
 35  36  37  38  39  40  41  42  43  44  45 0
 3-21G
 ****


