%nproc=1
%NoSave
%Mem=1900MB
#P OB98/GEN NMR

erre ene a

0 1
  C      668.889     298.479     -76.981
  O      669.880     298.774     -77.951
  H      669.251     297.669     -76.343
  H      667.971     298.153     -77.480
  H      668.687     299.357     -76.363
  P      669.644     300.087     -78.834
  C      669.376     299.064     -81.236
  O      670.194     299.774     -80.313
  C      669.343     299.794     -82.577
  O      669.179     301.213     -82.384
  C      670.628     299.689     -83.376
  O      670.817     298.406     -83.944
  C      670.407     300.781     -84.416
  O      669.638     300.307     -85.529
  C      669.619     301.842     -83.609
  N      670.414     303.035     -83.370
  C      670.480     303.934     -84.444
  O      669.876     303.695     -85.487
  N      671.263     305.052     -84.315
  C      671.941     305.243     -83.220
  N      672.721     306.358     -83.165
  C      671.895     304.323     -82.064
  C      671.121     303.246     -82.208
  O      670.732     301.102     -78.248
  O      668.247     300.608     -78.816
  H      668.839     299.881     -85.149
  H      671.621     300.722     -78.176
  H      672.471     304.535     -81.178
  H      671.028     302.513     -81.416
  H      668.713     302.141     -84.154
  H      671.354     301.147     -84.820
  H      671.488     299.978     -82.755
  H      668.484     299.419     -83.149
  H      672.762     306.936     -84.001
  H      668.357     298.951     -80.843
  H      673.346     306.566     -82.403
  H      669.799     298.062     -81.358
  P      672.200     298.003     -84.647
  C      671.327     299.064     -86.826
  O      671.903     297.910     -86.224
  O      672.885     296.808     -84.081
  O      673.062     299.354     -84.552
  H      672.661     300.125     -84.988
  H      671.176     298.884     -87.870
  H      671.985     299.898     -86.699
  H      670.387     299.277     -86.362

 6  7  8  9  10  11  12  13  14  15  16  26  30  31  32  33  35 0
 6-311+G(2d,p)
 ****
 37  38 0
 6-311+G(2d,p)
 ****
 1  2  3  4  5  17  18  19  20  21  22  23  24  25 0
 3-21G
 ****
 27  28  29  34  36  39  40  41  42  43  44  45  46 0
 3-21G
 ****


