%nproc=1
%NoSave
%Mem=1900MB
#P OB98/GEN NMR

erre ene a

0 1
  C      102.569     405.979      50.106
  O      102.332     406.019      51.502
  P      101.083     406.891      52.015
  C      100.404     405.343      53.995
  O      100.922     406.605      53.583
  C      100.487     405.213      55.514
  O      101.868     405.127      55.932
  C       99.903     406.392      56.285
  O       98.487     406.359      56.282
  C      100.546     406.179      57.652
  O       99.842     405.151      58.372
  C      101.955     405.687      57.270
  N      103.948     409.542      59.993
  C      102.937     408.683      60.250
  N      102.452     407.699      59.469
  C      103.124     407.636      58.308
  C      104.160     408.456      57.894
  C      104.580     409.448      58.795
  N      105.610     410.324      58.525
  N      104.585     408.108      56.630
  C      103.828     407.086      56.289
  N      102.942     406.755      57.278
  O       99.827     406.145      51.368
  O      101.134     408.339      51.633
  H       98.903     405.427      58.424
  H       99.127     406.784      51.131
  H      102.457     408.803      61.221
  H      103.892     406.553      55.348
  H      102.319     404.898      57.937
  H      100.546     407.078      58.276
  H      100.251     407.338      55.855
  H       99.978     404.284      55.803
  H      100.988     404.538      53.540
  H      105.744     411.094      59.160
  H      105.979     410.345      57.580
  H       99.371     405.253      53.649
  P       97.717     407.702      56.697
  C       95.722     406.711      55.412
  O       96.162     407.289      56.632
  O       97.893     408.596      55.382
  O       98.169     408.321      57.969
  H       97.673     408.107      54.569
  H       94.671     406.430      55.521
  H       96.305     405.814      55.182
  H       95.814     407.436      54.598
  H      103.424     405.367      49.907
  H      102.748     406.971      49.746
  H      101.714     405.569      49.611

 3  4  5  6  7  8  9  10  11  12  22  25  29  30  31  32 0
 6-311+G(2d,p)
 ****
 33  36  37 0
 6-311+G(2d,p)
 ****
 1  2  13  14  15  16  17  18  19  20  21  23  24  26 0
 3-21G
 ****
 27  28  34  35  38  39  40  41  42  43  44  45  46  47  48 0
 3-21G
 ****


