%nproc=1
%NoSave
%Mem=1900MB
#P OB98/GEN NMR

erre ene a

0 1
  C     -895.160    -102.963    -893.190
  O     -895.020    -103.306    -894.550
  H     -895.990    -102.265    -893.090
  H     -894.250    -102.488    -892.810
  H     -895.390    -103.857    -892.590
  P     -893.790    -104.244    -894.980
  C     -894.740    -106.176    -896.400
  O     -894.360    -105.733    -895.110
  C     -896.250    -106.446    -896.450
  O     -896.960    -105.241    -896.060
  C     -896.760    -106.833    -897.870
  O     -897.890    -107.690    -897.690
  C     -897.190    -105.479    -898.410
  O     -898.000    -105.608    -899.560
  C     -897.850    -104.880    -897.150
  N     -898.020    -103.438    -897.260
  C     -899.190    -103.002    -897.890
  O     -900.000    -103.825    -898.320
  N     -899.410    -101.652    -898.020
  C     -898.490    -100.811    -897.630
  N     -898.770     -99.489    -897.820
  C     -897.210    -101.232    -897.030
  C     -897.050    -102.549    -896.860
  O     -892.560    -104.115    -894.140
  O     -893.500    -103.828    -896.500
  H     -898.120    -104.734    -900.000
  H     -892.700    -103.271    -896.550
  H     -896.480    -100.494    -896.740
  H     -896.140    -102.956    -896.430
  H     -898.820    -105.341    -896.960
  H     -896.320    -104.883    -898.700
  H     -896.000    -107.326    -898.480
  H     -896.510    -107.224    -895.730
  H     -899.640     -99.246    -898.240
  H     -894.190    -107.100    -896.610
  H     -898.120     -98.752    -897.560
  H     -894.480    -105.422    -897.150
  P     -897.810    -109.285    -897.880
  C     -898.920    -109.959    -895.650
  O     -897.730    -109.978    -896.440
  O     -896.750    -109.729    -898.840
  O     -899.260    -109.703    -898.430
  H     -899.170    -110.494    -898.990
  H     -898.737    -110.450    -894.717
  H     -899.703    -110.467    -896.173
  H     -899.211    -108.946    -895.468

 6  7  8  9  10  11  12  13  14  15  16  26  30  31  32  33  35 0
 6-311+G(2d,p)
 ****
 37  38 0
 6-311+G(2d,p)
 ****
 1  2  3  4  5  17  18  19  20  21  22  23  24  25 0
 3-21G
 ****
 27  28  29  34  36  39  40  41  42  43  44  45  46 0
 3-21G
 ****


