%nproc=1
%NoSave
%Mem=1900MB
#P OB98/GEN NMR

erre ene a

0 1
  C     -752.584    1106.756    -341.838
  O     -752.846    1105.440    -342.254
  H     -751.740    1106.745    -341.143
  H     -753.457    1107.164    -341.325
  H     -752.327    1107.404    -342.686
  P     -753.710    1105.200    -343.578
  C     -751.570    1105.348    -345.013
  O     -752.891    1105.828    -344.813
  C     -751.397    1104.721    -346.400
  O     -752.345    1103.637    -346.573
  C     -751.672    1105.707    -347.529
  O     -750.577    1106.531    -347.887
  C     -752.055    1104.780    -348.670
  O     -750.882    1104.308    -349.364
  C     -752.753    1103.627    -347.954
  N     -756.985    1102.211    -350.449
  C     -755.663    1101.957    -350.761
  N     -755.446    1101.292    -351.913
  N     -754.661    1102.340    -350.020
  C     -755.023    1103.076    -348.939
  C     -756.297    1103.411    -348.533
  C     -757.411    1102.934    -349.339
  O     -758.597    1103.145    -349.104
  N     -756.280    1104.169    -347.396
  C     -755.003    1104.356    -347.153
  N     -754.202    1103.692    -348.056
  O     -754.931    1106.229    -343.420
  O     -754.206    1103.802    -343.787
  H     -750.358    1105.085    -349.645
  H     -755.706    1105.905    -343.916
  H     -757.724    1101.867    -351.039
  H     -754.596    1104.948    -346.334
  H     -752.449    1102.651    -348.371
  H     -752.679    1105.284    -349.420
  H     -756.178    1101.083    -352.577
  H     -752.539    1106.329    -347.289
  H     -754.500    1101.322    -352.309
  H     -750.391    1104.285    -346.478
  H     -751.379    1104.602    -344.237
  H     -750.847    1106.157    -344.869
  P     -750.792    1107.759    -348.904
  C     -750.083    1109.862    -347.543
  O     -751.139    1109.051    -348.013
  O     -752.192    1107.390    -349.595
  O     -749.707    1107.939    -349.902
  H     -752.036    1106.943    -350.446
  H     -750.483    1110.673    -346.971
  H     -749.533    1110.250    -348.375
  H     -749.432    1109.278    -346.927

 6  7  8  9  10  11  12  13  14  15  26  29  33  34 0
 6-311+G(2d,p)
 ****
 36  38  39  40  41 0
 6-311+G(2d,p)
 ****
 1  2  3  4  5  16  17  18  19  20  21  22  23  24  25 0
 3-21G
 ****
 27  28  30  31  32  35  37  42  43  44  45  46  47 0
 3-21G
 ****
 48  49 0
 3-21G
 ****


