%nproc=1
%NoSave
%Mem=1900MB
#P OB98/GEN NMR

erre ene a

0 1
  C     -137.165     437.847     425.107
  O     -137.807     437.015     424.164
  H     -136.783     438.731     424.599
  H     -136.322     437.307     425.552
  H     -137.862     438.158     425.891
  P     -138.775     435.870     424.728
  C     -136.880     435.221     426.378
  O     -138.259     435.519     426.212
  C     -136.676     434.315     427.599
  O     -136.637     435.148     428.794
  C     -137.789     433.268     427.793
  O     -137.203     432.061     428.299
  C     -138.633     433.881     428.904
  O     -139.387     432.904     429.612
  C     -137.550     434.560     429.739
  N     -138.328     435.591     434.591
  C     -137.556     434.616     433.992
  N     -136.932     433.734     434.812
  N     -137.403     434.512     432.697
  C     -138.060     435.465     431.998
  C     -138.861     436.476     432.467
  C     -139.034     436.572     433.902
  O     -139.727     437.405     434.490
  N     -139.398     437.203     431.436
  C     -138.943     436.609     430.344
  N     -138.125     435.552     430.635
  O     -138.347     434.591     423.868
  O     -140.240     436.152     424.616
  H     -138.760     432.273     430.024
  H     -138.937     434.498     423.096
  H     -138.424     435.622     435.594
  H     -139.189     436.894     429.329
  H     -136.994     433.853     430.362
  H     -139.333     434.616     428.479
  H     -136.977     433.770     435.817
  H     -138.365     433.052     426.891
  H     -136.333     433.049     434.383
  H     -135.697     433.826     427.513
  H     -136.322     436.152     426.531
  H     -136.504     434.731     425.477
  P     -136.522     431.064     427.246
  C     -138.697     429.633     427.302
  O     -137.675     430.227     426.514
  O     -135.813     429.971     428.185
  O     -135.534     431.723     426.338
  H     -134.982     429.671     427.771
  H     -139.383     429.114     426.665
  H     -139.219     430.395     427.843
  H     -138.259     428.942     427.992

 6  7  8  9  10  11  12  13  14  15  26  29  33  34 0
 6-311+G(2d,p)
 ****
 36  38  39  40  41 0
 6-311+G(2d,p)
 ****
 1  2  3  4  5  16  17  18  19  20  21  22  23  24  25 0
 3-21G
 ****
 27  28  30  31  32  35  37  42  43  44  45  46  47 0
 3-21G
 ****
 48  49 0
 3-21G
 ****


