%nproc=1
%NoSave
%Mem=1900MB
#P OB98/GEN NMR

erre ene a

0 1
  C      483.898    -278.625    -516.442
  O      482.970    -279.506    -517.038
  H      484.863    -278.746    -516.935
  H      484.007    -278.860    -515.381
  H      483.569    -277.587    -516.559
  P      481.452    -279.421    -516.525
  C      481.009    -278.406    -518.868
  O      480.535    -279.260    -517.830
  C      479.843    -277.778    -519.625
  O      479.193    -278.808    -520.433
  C      478.767    -277.154    -518.722
  O      478.245    -275.995    -519.390
  C      477.676    -278.218    -518.706
  O      476.399    -277.689    -518.355
  C      477.779    -278.730    -520.140
  N      473.344    -280.929    -521.040
  C      473.686    -279.592    -520.984
  N      472.697    -278.703    -521.203
  N      474.897    -279.168    -520.738
  C      475.800    -280.171    -520.571
  C      475.584    -281.526    -520.597
  C      474.231    -281.986    -520.843
  O      473.859    -283.152    -520.880
  N      476.746    -282.212    -520.354
  C      477.659    -281.270    -520.187
  N      477.132    -280.014    -520.308
  O      481.392    -277.979    -515.839
  O      481.035    -280.507    -515.585
  H      476.448    -277.390    -517.420
  H      481.573    -278.050    -514.881
  H      472.393    -281.203    -521.220
  H      478.706    -281.445    -519.974
  H      477.319    -278.047    -520.866
  H      477.932    -279.006    -517.989
  H      471.748    -278.957    -521.441
  H      479.116    -276.879    -517.723
  H      472.941    -277.716    -521.209
  H      480.241    -277.037    -520.331
  H      481.616    -279.000    -519.567
  H      481.637    -277.624    -518.430
  P      478.724    -274.556    -518.879
  C      478.479    -273.617    -521.290
  O      478.192    -273.457    -519.912
  O      480.301    -274.578    -519.171
  O      478.432    -274.281    -517.439
  H      480.765    -273.991    -518.543
  H      478.055    -272.803    -521.840
  H      478.059    -274.538    -521.637
  H      479.539    -273.631    -521.434

 6  7  8  9  10  11  12  13  14  15  26  29  33  34 0
 6-311+G(2d,p)
 ****
 36  38  39  40  41 0
 6-311+G(2d,p)
 ****
 1  2  3  4  5  16  17  18  19  20  21  22  23  24  25 0
 3-21G
 ****
 27  28  30  31  32  35  37  42  43  44  45  46  47 0
 3-21G
 ****
 48  49 0
 3-21G
 ****


