%nproc=1
%NoSave
%Mem=1900MB
#P OB98/GEN NMR

erre ene a

0 1
  C       32.004      44.091     143.019
  O       32.833      42.964     142.811
  H       30.974      43.814     142.779
  H       32.306      44.915     142.367
  H       32.045      44.407     144.064
  P       34.408      43.121     143.054
  C       34.704      43.514     140.517
  O       34.965      43.997     141.830
  C       35.068      44.573     139.480
  O       34.476      45.840     139.825
  C       36.570      44.824     139.341
  O       37.167      43.842     138.512
  C       36.561      46.201     138.697
  O       36.235      46.080     137.298
  C       35.405      46.892     139.445
  N       37.615      51.083     141.268
  C       37.517      50.628     139.968
  N       38.121      51.380     139.024
  N       36.896      49.528     139.627
  C       36.403      48.842     140.683
  C       36.451      49.181     142.016
  C       37.084      50.433     142.374
  O       37.170      50.887     143.514
  N       35.925      48.191     142.808
  C       35.510      47.278     141.949
  N       35.785      47.621     140.643
  O       35.169      41.850     143.285
  O       34.518      44.122     144.299
  H       36.876      45.458     136.906
  H       34.561      43.633     145.141
  H       38.113      51.934     141.472
  H       35.002      46.358     142.214
  H       34.861      47.596     138.804
  H       37.526      46.705     138.760
  H       38.736      52.149     139.237
  H       37.058      44.893     140.319
  H       38.108      51.031     138.071
  H       34.632      44.265     138.520
  H       33.637      43.273     140.460
  H       35.278      42.601     140.326
  P       38.441      42.990     139.002
  C       39.990      44.788     137.971
  O       39.636      44.052     139.131
  O       38.754      41.797     138.169
  O       38.128      42.657     140.533
  H       37.571      41.847     140.647
  H       40.796      45.453     138.203
  H       39.146      45.354     137.636
  H       40.296      44.113     137.200

 6  7  8  9  10  11  12  13  14  15  26  29  33  34 0
 6-311+G(2d,p)
 ****
 36  38  39  40  41 0
 6-311+G(2d,p)
 ****
 1  2  3  4  5  16  17  18  19  20  21  22  23  24  25 0
 3-21G
 ****
 27  28  30  31  32  35  37  42  43  44  45  46  47 0
 3-21G
 ****
 48  49 0
 3-21G
 ****


