%nproc=1
%NoSave
%Mem=1900MB
#P OB98/GEN NMR

erre ene a

0 1
  C     -235.138     -80.366     367.696
  O     -236.339     -81.113     367.735
  H     -235.259     -79.478     368.323
  H     -234.922     -80.049     366.671
  H     -234.311     -80.964     368.089
  P     -236.382     -82.449     366.845
  C     -238.003     -81.313     365.174
  O     -236.737     -81.931     365.369
  C     -237.842     -79.974     364.465
  O     -236.817     -79.189     365.107
  C     -237.446     -80.080     362.996
  O     -238.586     -80.306     362.188
  C     -236.852     -78.698     362.753
  O     -237.913     -77.752     362.519
  C     -236.157     -78.387     364.092
  N     -231.487     -76.382     364.821
  C     -232.696     -75.803     364.672
  N     -233.885     -76.390     364.427
  C     -233.753     -77.727     364.344
  C     -232.578     -78.460     364.469
  C     -231.404     -77.730     364.724
  N     -230.167     -78.326     364.870
  N     -232.820     -79.810     364.317
  C     -234.125     -79.891     364.165
  N     -234.731     -78.658     364.140
  O     -237.231     -83.556     367.381
  O     -234.821     -82.786     366.727
  H     -238.456     -78.108     361.790
  H     -234.305     -81.973     366.590
  H     -232.710     -74.721     364.761
  H     -234.689     -80.816     364.091
  H     -236.282     -77.331     364.375
  H     -236.201     -78.671     361.882
  H     -236.666     -80.840     362.842
  H     -238.786     -79.418     364.569
  H     -238.505     -81.164     366.141
  H     -229.364     -77.720     364.856
  H     -230.093     -79.312     364.669
  H     -238.618     -81.993     364.570
  P     -238.868     -81.739     361.530
  C     -238.561     -80.394     359.358
  O     -238.306     -81.623     360.028
  O     -240.273     -82.219     361.661
  O     -237.813     -82.709     362.235
  H     -238.074     -83.645     362.100
  H     -238.144     -80.431     358.373
  H     -238.114     -79.590     359.905
  H     -239.617     -80.236     359.292

 6  7  8  9  10  11  12  13  14  15  25  28  32  33  34  35 0
 6-311+G(2d,p)
 ****
 36  39  40 0
 6-311+G(2d,p)
 ****
 1  2  3  4  5  16  17  18  19  20  21  22  23  24 0
 3-21G
 ****
 26  27  29  30  31  37  38  41  42  43  44  45  46  47 0
 3-21G
 ****
 48 0
 3-21G
 ****


