%nproc=1
%NoSave
%Mem=1900MB
#P OB98/GEN NMR

erre ene a

0 1
  C     -348.284    -268.105    -298.734
  O     -347.725    -269.289    -298.202
  H     -347.627    -267.731    -299.523
  H     -348.364    -267.347    -297.950
  H     -349.271    -268.307    -299.161
  P     -348.582    -270.058    -297.084
  C     -346.786    -270.450    -295.254
  O     -347.554    -271.019    -296.306
  C     -345.294    -270.714    -295.471
  O     -344.739    -269.640    -296.288
  C     -344.473    -270.776    -294.175
  O     -343.434    -271.750    -294.356
  C     -343.826    -269.402    -294.117
  O     -342.658    -269.377    -293.298
  C     -343.567    -269.162    -295.604
  N     -339.904    -265.777    -296.287
  C     -339.839    -267.143    -296.058
  N     -338.602    -267.690    -296.004
  N     -340.888    -267.900    -295.899
  C     -342.057    -267.225    -296.011
  C     -342.260    -265.883    -296.229
  C     -341.086    -265.046    -296.378
  O     -341.083    -263.834    -296.562
  N     -343.600    -265.580    -296.248
  C     -344.204    -266.739    -296.044
  N     -343.313    -267.765    -295.893
  O     -349.463    -271.073    -297.956
  O     -349.429    -269.191    -296.215
  H     -342.886    -269.785    -292.436
  H     -350.330    -270.681    -298.160
  H     -339.063    -265.237    -296.391
  H     -345.276    -266.885    -295.995
  H     -342.702    -269.726    -295.969
  H     -344.537    -268.667    -293.721
  H     -337.753    -267.175    -296.164
  H     -345.056    -271.018    -293.279
  H     -338.533    -268.693    -295.881
  H     -345.185    -271.638    -296.048
  H     -347.095    -270.897    -294.303
  H     -346.971    -269.368    -295.215
  P     -343.516    -273.106    -293.509
  C     -341.617    -272.510    -291.832
  O     -342.076    -273.375    -292.858
  O     -343.606    -274.232    -294.646
  O     -344.676    -273.175    -292.568
  H     -344.084    -275.010    -294.303
  H     -340.647    -272.824    -291.508
  H     -342.297    -272.544    -291.007
  H     -341.561    -271.510    -292.207

 6  7  8  9  10  11  12  13  14  15  26  29  33  34 0
 6-311+G(2d,p)
 ****
 36  38  39  40  41 0
 6-311+G(2d,p)
 ****
 1  2  3  4  5  16  17  18  19  20  21  22  23  24  25 0
 3-21G
 ****
 27  28  30  31  32  35  37  42  43  44  45  46  47 0
 3-21G
 ****
 48  49 0
 3-21G
 ****


