%nproc=1
%NoSave
%Mem=1900MB
#P OB98/GEN NMR

erre ene a

0 1
  C     -404.369    -506.763    -112.655
  O     -405.782    -506.964    -112.635
  P     -406.655    -507.230    -111.325
  C     -407.798    -509.423    -110.420
  O     -406.673    -508.803    -111.038
  C     -407.418    -510.789    -109.821
  O     -407.019    -511.679    -110.911
  C     -406.228    -510.695    -108.853
  O     -406.390    -511.489    -107.682
  C     -405.039    -511.012    -109.749
  O     -403.885    -511.419    -109.029
  C     -405.629    -512.038    -110.715
  N     -401.144    -512.450    -113.129
  C     -401.406    -512.287    -111.776
  N     -400.331    -512.191    -110.963
  N     -402.609    -512.187    -111.279
  C     -403.586    -512.212    -112.211
  C     -403.454    -512.362    -113.573
  C     -402.119    -512.514    -114.114
  O     -401.838    -512.685    -115.295
  N     -404.678    -512.349    -114.199
  C     -405.546    -512.171    -113.218
  N     -404.931    -512.091    -111.985
  O     -407.964    -506.519    -111.259
  O     -405.727    -506.656    -110.132
  H     -403.150    -511.514    -109.675
  H     -406.344    -506.324    -109.446
  H     -400.196    -512.539    -113.454
  H     -406.619    -512.119    -113.334
  H     -405.590    -513.051    -110.310
  H     -404.771    -510.089    -110.285
  H     -399.373    -512.135    -111.296
  H     -406.123    -509.673    -108.463
  H     -400.516    -511.847    -110.015
  H     -408.304    -511.215    -109.338
  H     -408.542    -509.559    -111.216
  H     -408.234    -508.766    -109.669
  P     -406.498    -511.009    -106.155
  C     -404.923    -510.311    -104.262
  O     -405.047    -510.578    -105.644
  O     -406.791    -512.350    -105.328
  O     -407.578    -509.994    -105.902
  H     -407.663    -512.281    -104.879
  H     -403.976    -509.783    -104.088
  H     -404.900    -511.259    -103.713
  H     -405.747    -509.693    -103.903
  H     -404.045    -506.607    -113.663
  H     -403.880    -507.626    -112.253
  H     -404.122    -505.905    -112.065

 3  4  5  6  7  8  9  10  11  12  23  26  30  31 0
 6-311+G(2d,p)
 ****
 33  35  36  37  38 0
 6-311+G(2d,p)
 ****
 1  2  13  14  15  16  17  18  19  20  21  22  24  25 0
 3-21G
 ****
 27  28  29  32  34  39  40  41  42  43  44  45  46  47  48  49 0
 3-21G
 ****


