%nproc=1
%NoSave
%Mem=1900MB
#P OB98/GEN NMR

erre ene a

0 1
  C      -25.476      28.494     209.532
  O      -26.757      28.731     210.083
  H      -25.461      28.855     208.499
  H      -25.260      27.421     209.532
  H      -24.710      29.027     210.104
  P      -26.962      28.379     211.634
  C      -26.865      26.161     213.000
  O      -27.021      26.776     211.729
  C      -26.508      24.683     212.824
  O      -27.663      23.988     212.277
  C      -25.337      24.454     211.856
  O      -24.552      23.354     212.329
  C      -26.028      24.073     210.557
  O      -25.209      23.318     209.672
  C      -27.233      23.293     211.086
  N      -28.325      23.210     210.112
  C      -28.512      21.995     209.462
  O      -27.881      20.966     209.698
  N      -29.483      21.989     208.489
  C      -30.244      23.055     208.102
  O      -31.081      22.988     207.209
  C      -29.994      24.315     208.819
  C      -29.058      24.334     209.775
  O      -28.474      28.816     211.917
  O      -25.993      29.016     212.575
  H      -28.513      29.748     212.213
  H      -24.960      22.488     210.126
  H      -29.636      21.114     208.008
  H      -30.571      25.180     208.533
  H      -28.838      25.249     210.314
  H      -26.932      22.282     211.390
  H      -26.353      24.978     210.024
  H      -24.705      25.337     211.737
  H      -26.301      24.245     213.808
  H      -27.807      26.240     213.554
  H      -26.076      26.679     213.559
  P      -22.976      23.606     212.534
  C      -20.956      23.510     210.873
  O      -22.351      23.707     211.057
  O      -22.494      22.181     213.076
  O      -22.685      24.759     213.439
  H      -22.960      21.431     212.661
  H      -20.715      23.612     209.836
  H      -20.687      22.529     211.206
  H      -20.415      24.240     211.439

 6  7  8  9  10  11  12  13  14  15  16  27  31  32  33  34  35 0
 6-311+G(2d,p)
 ****
 36  37 0
 6-311+G(2d,p)
 ****
 1  2  3  4  5  17  18  19  20  21  22  23  24  25 0
 3-21G
 ****
 26  28  29  30  38  39  40  41  42  43  44  45 0
 3-21G
 ****


