%nproc=1
%NoSave
%Mem=1900MB
#P OB98/GEN NMR

erre ene a

0 1
  C     -403.350    -358.673    -225.516
  O     -403.113    -360.053    -225.294
  P     -404.392    -361.022    -225.178
  C     -405.395    -362.927    -226.635
  O     -404.387    -361.935    -226.497
  C     -404.973    -363.967    -227.666
  O     -405.138    -363.458    -229.003
  C     -403.507    -364.379    -227.576
  O     -403.278    -365.342    -226.560
  C     -403.288    -364.994    -228.948
  O     -403.807    -366.336    -228.976
  C     -404.132    -364.077    -229.845
  N     -400.397    -363.214    -233.146
  C     -401.076    -364.385    -232.863
  N     -400.650    -365.492    -233.510
  N     -402.072    -364.464    -232.026
  C     -402.376    -363.276    -231.444
  C     -401.783    -362.049    -231.646
  C     -400.669    -361.982    -232.567
  O     -399.996    -360.985    -232.821
  N     -402.370    -361.076    -230.884
  C     -403.324    -361.707    -230.225
  N     -403.338    -363.049    -230.497
  O     -405.626    -360.034    -225.419
  O     -404.500    -361.751    -223.882
  H     -403.795    -366.618    -229.912
  H     -406.451    -360.449    -225.106
  H     -399.627    -363.205    -233.799
  H     -404.011    -361.238    -229.533
  H     -404.659    -364.641    -230.626
  H     -402.231    -365.053    -229.224
  H     -399.846    -365.513    -234.122
  H     -402.851    -363.504    -227.458
  H     -401.086    -366.379    -233.277
  H     -405.623    -364.845    -227.551
  H     -406.324    -362.453    -226.955
  H     -405.568    -363.402    -225.667
  P     -401.754    -365.631    -226.165
  C     -400.617    -367.258    -224.489
  O     -401.811    -366.651    -224.931
  O     -401.286    -364.248    -225.501
  O     -400.876    -366.029    -227.311
  H     -400.319    -364.138    -225.592
  H     -400.790    -367.700    -223.501
  H     -399.810    -366.525    -224.404
  H     -400.323    -368.053    -225.179
  H     -402.415    -358.155    -225.571
  H     -403.931    -358.277    -224.709
  H     -403.883    -358.546    -226.435

 3  4  5  6  7  8  9  10  11  12  23  26  30  31 0
 6-311+G(2d,p)
 ****
 33  35  36  37  38 0
 6-311+G(2d,p)
 ****
 1  2  13  14  15  16  17  18  19  20  21  22  24  25 0
 3-21G
 ****
 27  28  29  32  34  39  40  41  42  43  44  45  46  47  48  49 0
 3-21G
 ****


