%nproc=1
%NoSave
%Mem=1900MB
#P OB98/GEN NMR

erre ene a

0 1
  C      326.527     112.224     106.667
  O      325.656     111.142     106.948
  P      325.773     110.423     108.373
  C      325.479     108.178     107.104
  O      325.133     108.957     108.241
  C      324.397     107.136     106.806
  O      324.841     106.264     105.737
  C      324.056     106.246     108.008
  O      322.662     105.904     107.965
  C      324.839     104.979     107.740
  O      324.273     103.858     108.419
  C      324.757     104.906     106.217
  N      326.310     100.176     105.346
  C      325.061     100.636     105.715
  N      324.125      99.694     105.967
  N      324.757     101.898     105.818
  C      325.794     102.727     105.541
  C      327.072     102.390     105.150
  C      327.399     100.988     105.051
  O      328.493     100.517     104.758
  N      327.834     103.508     104.925
  C      327.039     104.518     105.220
  N      325.802     104.094     105.633
  O      324.706     111.219     109.264
  O      327.132     110.478     108.987
  H      324.356     104.038     109.377
  H      325.168     111.819     109.877
  H      326.501      99.188     105.290
  H      327.315     105.563     105.174
  H      323.792     104.499     105.887
  H      325.877     105.097     108.082
  H      324.318      98.702     105.969
  H      324.295     106.688     108.982
  H      323.215     100.002     106.283
  H      323.503     107.658     106.445
  H      326.424     107.664     107.297
  H      325.615     108.835     106.238
  P      321.748     106.539     109.127
  C      320.802     104.124     109.343
  O      320.538     105.513     109.338
  O      321.064     107.794     108.406
  O      322.500     106.926     110.354
  H      320.818     108.468     109.068
  H      320.548     103.719     110.327
  H      321.851     103.898     109.123
  H      320.173     103.642     108.591
  H      326.328     112.596     105.684
  H      327.542     111.889     106.723
  H      326.369     113.004     107.382

 3  4  5  6  7  8  9  10  11  12  23  26  30  31 0
 6-311+G(2d,p)
 ****
 33  35  36  37  38 0
 6-311+G(2d,p)
 ****
 1  2  13  14  15  16  17  18  19  20  21  22  24  25 0
 3-21G
 ****
 27  28  29  32  34  39  40  41  42  43  44  45  46  47  48  49 0
 3-21G
 ****


