%nproc=1
%NoSave
%Mem=1900MB
#P OB98/GEN NMR

erre ene a

0 1
  C       -4.117     -15.813     -18.956
  O       -4.605     -15.489     -17.650
  P       -6.073     -16.015     -17.279
  C       -6.747     -18.490     -17.683
  O       -5.970     -17.575     -16.923
  C       -6.538     -19.913     -17.165
  O       -5.184     -20.366     -17.378
  C       -6.776     -20.052     -15.667
  O       -8.161     -20.033     -15.366
  C       -6.084     -21.382     -15.390
  O       -6.930     -22.479     -15.774
  C       -4.868     -21.312     -16.328
  N       -1.014     -22.849     -13.336
  C       -2.086     -23.502     -13.834
  N       -3.070     -23.021     -14.622
  C       -2.864     -21.723     -14.901
  C       -1.816     -20.927     -14.469
  C       -0.858     -21.540     -13.644
  N        0.226     -20.870     -13.124
  N       -1.946     -19.644     -14.959
  C       -3.065     -19.660     -15.654
  N       -3.649     -20.897     -15.658
  O       -6.839     -15.994     -18.683
  O       -6.768     -15.176     -16.258
  H       -6.443     -23.304     -15.576
  H       -7.491     -15.270     -18.697
  H       -2.166     -24.551     -13.563
  H       -3.489     -18.807     -16.168
  H       -4.660     -22.275     -16.808
  H       -5.828     -21.521     -14.335
  H       -6.267     -19.244     -15.126
  H       -7.219     -20.578     -17.712
  H       -6.469     -18.437     -18.739
  H        0.822     -21.363     -12.478
  H        0.304     -19.875     -13.276
  H       -7.800     -18.196     -17.620
  P       -8.720     -18.808     -14.496
  C       -9.899     -16.610     -15.106
  O       -9.348     -17.818     -15.596
  O       -7.369     -18.062     -14.084
  O       -9.625     -19.191     -13.376
  H       -6.762     -17.968     -14.841
  H      -10.256     -16.020     -15.954
  H       -9.139     -16.037     -14.569
  H      -10.743     -16.825     -14.444
  H       -3.134     -15.408     -19.080
  H       -4.770     -15.396     -19.694
  H       -4.082     -16.876     -19.070

 3  4  5  6  7  8  9  10  11  12  22  25  29  30  31  32 0
 6-311+G(2d,p)
 ****
 33  36  37 0
 6-311+G(2d,p)
 ****
 1  2  13  14  15  16  17  18  19  20  21  23  24  26 0
 3-21G
 ****
 27  28  34  35  38  39  40  41  42  43  44  45  46  47  48 0
 3-21G
 ****


