%nproc=1
%NoSave
%Mem=1900MB
#P OB98/GEN NMR

erre ene a

0 1
  C      654.114    -251.025     868.058
  O      654.285    -250.276     869.259
  P      653.703    -250.909     870.614
  C      651.793    -249.119     870.462
  O      652.157    -250.478     870.669
  C      650.326    -248.900     870.832
  O      649.462    -249.567     869.868
  C      649.940    -249.478     872.178
  O      650.426    -248.681     873.248
  C      648.423    -249.519     872.053
  O      647.866    -248.213     872.305
  C      648.233    -249.894     870.566
  N      647.865    -251.284     870.373
  C      646.622    -251.655     870.869
  O      645.873    -250.883     871.467
  N      646.271    -252.974     870.681
  C      647.034    -253.926     870.077
  O      646.663    -255.085     869.929
  C      648.365    -253.487     869.615
  C      648.713    -252.208     869.784
  O      654.414    -249.996     871.719
  O      653.977    -252.378     870.733
  H      654.519    -249.071     871.433
  H      648.059    -248.005     873.245
  H      645.366    -253.259     871.022
  H      649.004    -254.225     869.167
  H      649.689    -251.867     869.442
  H      647.455    -249.262     870.116
  H      647.953    -250.213     872.760
  H      650.329    -250.503     872.280
  H      650.116    -247.832     870.805
  H      651.935    -248.849     869.409
  H      652.451    -248.476     871.062
  P      651.564    -249.332     874.179
  C      649.806    -250.821     875.417
  O      651.007    -250.739     874.671
  O      651.473    -248.392     875.481
  O      652.917    -249.362     873.540
  H      650.558    -248.224     875.757
  H      649.418    -251.826     875.347
  H      649.048    -250.122     875.030
  H      650.011    -250.580     876.464
  H      654.546    -250.489     867.239
  H      653.070    -251.174     867.876
  H      654.597    -251.974     868.158

 3  4  5  6  7  8  9  10  11  12  13  24  28  29  30  31  32 0
 6-311+G(2d,p)
 ****
 33  34 0
 6-311+G(2d,p)
 ****
 1  2  14  15  16  17  18  19  20  21  22  23  25  26  27 0
 3-21G
 ****
 35  36  37  38  39  40  41  42  43  44  45 0
 3-21G
 ****


