%nproc=1
%NoSave
%Mem=1900MB
#P OB98/GEN NMR

erre ene a

0 1
  C     -899.260     182.698    -897.800
  O     -898.220     181.726    -897.820
  P     -897.000     181.927    -896.790
  C     -895.020     183.592    -896.570
  O     -896.180     183.213    -897.270
  C     -894.080     184.380    -897.480
  O     -894.800     185.522    -898.060
  C     -892.890     185.010    -896.760
  O     -891.900     184.036    -896.480
  C     -892.480     186.073    -897.790
  O     -891.750     185.458    -898.850
  C     -893.840     186.560    -898.300
  N     -893.720     191.686    -898.380
  C     -893.130     190.780    -899.180
  N     -893.190     189.407    -899.080
  C     -893.960     189.058    -898.020
  C     -894.610     189.876    -897.110
  C     -894.460     191.258    -897.330
  N     -895.060     192.223    -896.510
  N     -895.280     189.148    -896.160
  C     -895.070     187.915    -896.500
  N     -894.300     187.786    -897.630
  O     -896.030     180.686    -897.140
  O     -897.420     181.924    -895.340
  H     -891.660     186.130    -899.560
  H     -895.590     180.382    -896.330
  H     -892.540     191.134    -900.000
  H     -895.440     187.035    -895.940
  H     -893.830     186.779    -899.390
  H     -891.850     186.863    -897.360
  H     -893.190     185.502    -895.810
  H     -893.740     183.725    -898.300
  H     -894.490     182.695    -896.220
  H     -894.800     193.174    -896.670
  H     -895.490     191.883    -895.650
  H     -895.300     184.150    -895.660
  P     -890.800     184.380    -895.360
  C     -888.970     186.195    -895.190
  O     -889.970     185.602    -896.020
  O     -889.790     183.153    -895.490
  O     -891.350     184.620    -893.990
  H     -889.550     183.006    -896.430
  H     -888.450     186.972    -895.760
  H     -888.250     185.411    -894.880
  H     -889.430     186.667    -894.300
  H     -900.000     182.443    -898.529
  H     -898.852     183.661    -898.027
  H     -899.708     182.720    -896.829

 3  4  5  6  7  8  9  10  11  12  22  25  29  30  31  32 0
 6-311+G(2d,p)
 ****
 33  36  37 0
 6-311+G(2d,p)
 ****
 1  2  13  14  15  16  17  18  19  20  21  23  24  26 0
 3-21G
 ****
 27  28  34  35  38  39  40  41  42  43  44  45  46  47  48 0
 3-21G
 ****


