%nproc=1
%NoSave
%Mem=1900MB
#P OB98/GEN NMR

erre ene a

0 1
  C       40.507      -8.976     -12.940
  O       40.760     -10.284     -13.425
  P       40.293     -11.587     -12.609
  C       42.734     -12.315     -12.159
  O       41.497     -11.908     -11.600
  C       43.255     -13.565     -11.446
  O       43.799     -13.171     -10.159
  C       42.188     -14.637     -11.190
  O       42.830     -15.912     -11.312
  C       41.785     -14.376      -9.752
  O       41.191     -15.510      -9.136
  C       43.128     -13.951      -9.149
  N       42.972     -13.189      -7.915
  C       42.716     -13.898      -6.741
  O       42.604     -15.123      -6.754
  N       42.593     -13.200      -5.565
  C       42.632     -11.904      -5.575
  N       42.564     -11.262      -4.377
  C       42.791     -11.111      -6.809
  C       42.976     -11.813      -7.924
  O       39.867     -12.736     -13.456
  O       39.164     -11.049     -11.617
  H       40.810     -15.230      -8.282
  H       38.268     -11.016     -12.035
  H       42.789     -10.031      -6.769
  H       43.125     -11.316      -8.872
  H       43.755     -14.831      -8.963
  H       41.060     -13.557      -9.719
  H       41.355     -14.582     -11.897
  H       44.081     -13.980     -12.037
  H       42.631     -11.841      -3.546
  H       43.457     -11.506     -12.024
  H       42.908     -10.314      -4.273
  H       42.614     -12.495     -13.233
  P       42.003     -17.119     -11.974
  C       42.110     -18.941     -10.130
  O       41.332     -17.968     -10.793
  O       43.186     -18.095     -12.455
  O       41.132     -16.770     -13.136
  H       42.866     -18.638     -13.199
  H       41.496     -19.411      -9.357
  H       42.977     -18.478      -9.652
  H       42.439     -19.711     -10.832
  H       40.898      -8.258     -13.630
  H       40.981      -8.851     -11.989
  H       39.452      -8.832     -12.835

 3  4  5  6  7  8  9  10  11  12  13  23  27  28  29  30  32 0
 6-311+G(2d,p)
 ****
 34  35 0
 6-311+G(2d,p)
 ****
 1  2  14  15  16  17  18  19  20  21  22  24  25  26 0
 3-21G
 ****
 31  33  36  37  38  39  40  41  42  43  44  45  46 0
 3-21G
 ****


