%nproc=1
%NoSave
%Mem=1900MB
#P OB98/GEN NMR

erre ene a

0 1
  C     -542.705    -560.901      24.480
  O     -542.086    -562.108      24.067
  H     -543.629    -561.137      25.005
  H     -542.947    -560.288      23.597
  H     -542.041    -560.353      25.148
  P     -540.735    -561.971      23.216
  C     -539.559    -561.030      25.330
  O     -539.854    -560.846      23.952
  C     -538.265    -560.318      25.697
  O     -538.338    -558.906      25.412
  C     -537.869    -560.454      27.161
  O     -537.197    -561.681      27.407
  C     -536.960    -559.241      27.347
  O     -535.642    -559.498      26.828
  C     -537.667    -558.188      26.481
  N     -538.471    -553.649      28.577
  C     -537.332    -554.175      28.000
  N     -536.225    -553.391      27.995
  N     -537.275    -555.378      27.476
  C     -538.427    -556.069      27.595
  C     -539.624    -555.668      28.155
  C     -539.688    -554.315      28.686
  O     -540.688    -553.759      29.135
  N     -540.584    -556.659      28.072
  C     -539.941    -557.668      27.501
  N     -538.644    -557.364      27.202
  O     -541.217    -561.234      21.874
  O     -540.030    -563.252      22.907
  H     -535.717    -559.808      25.899
  H     -540.725    -561.607      21.117
  H     -538.462    -552.711      28.940
  H     -540.398    -558.627      27.280
  H     -536.965    -557.488      26.012
  H     -536.837    -558.976      28.398
  H     -536.139    -552.607      28.630
  H     -538.744    -560.350      27.825
  H     -535.380    -553.808      27.633
  H     -537.464    -560.736      25.052
  H     -539.467    -562.105      25.531
  H     -540.379    -560.623      25.929
  P     -537.130    -562.224      28.911
  C     -538.766    -564.201      28.468
  O     -538.493    -563.015      29.214
  O     -537.265    -560.896      29.787
  O     -535.872    -562.966      29.245
  H     -536.384    -560.656      30.167
  H     -539.703    -564.611      28.781
  H     -537.989    -564.916      28.638
  H     -538.811    -563.964      27.425

 6  7  8  9  10  11  12  13  14  15  26  29  33  34 0
 6-311+G(2d,p)
 ****
 36  38  39  40  41 0
 6-311+G(2d,p)
 ****
 1  2  3  4  5  16  17  18  19  20  21  22  23  24  25 0
 3-21G
 ****
 27  28  30  31  32  35  37  42  43  44  45  46  47 0
 3-21G
 ****
 48  49 0
 3-21G
 ****


