%nproc=1
%NoSave
%Mem=1900MB
#P OB98/GEN NMR

erre ene a

0 1
  C      254.015    -397.038    -136.278
  O      254.429    -395.781    -136.777
  H      253.856    -397.714    -137.122
  H      253.073    -396.931    -135.733
  H      254.781    -397.462    -135.623
  P      254.887    -394.691    -135.689
  C      252.597    -393.415    -135.858
  O      253.532    -394.115    -135.055
  C      251.476    -392.832    -134.995
  O      250.752    -393.926    -134.372
  C      251.973    -391.905    -133.882
  O      251.019    -390.856    -133.706
  C      251.966    -392.804    -132.653
  O      251.885    -392.052    -131.444
  C      250.756    -393.702    -132.945
  N      250.807    -394.961    -132.206
  C      250.480    -394.903    -130.849
  O      250.185    -393.830    -130.323
  N      250.539    -396.053    -130.098
  C      250.952    -397.154    -130.645
  N      251.010    -398.254    -129.847
  C      251.346    -397.255    -132.064
  C      251.240    -396.132    -132.778
  O      255.408    -393.499    -136.623
  O      255.891    -395.186    -134.704
  H      251.785    -392.678    -130.692
  H      254.818    -393.307    -137.371
  H      251.693    -398.192    -132.474
  H      251.503    -396.116    -133.833
  H      249.822    -393.188    -132.688
  H      252.885    -393.399    -132.617
  H      252.957    -391.481    -134.091
  H      250.767    -392.312    -135.651
  H      250.752    -398.136    -128.876
  H      252.168    -394.082    -136.608
  H      251.367    -399.147    -130.149
  H      253.133    -392.615    -136.378
  P      251.184    -389.497    -134.534
  C      251.920    -388.081    -132.502
  O      252.249    -388.551    -133.803
  O      249.910    -388.830    -134.940
  O      251.992    -389.980    -135.840
  H      251.611    -389.517    -136.614
  H      252.713    -387.464    -132.134
  H      251.783    -388.915    -131.846
  H      251.016    -387.510    -132.547

 6  7  8  9  10  11  12  13  14  15  16  26  30  31  32  33  35 0
 6-311+G(2d,p)
 ****
 37  38 0
 6-311+G(2d,p)
 ****
 1  2  3  4  5  17  18  19  20  21  22  23  24  25 0
 3-21G
 ****
 27  28  29  34  36  39  40  41  42  43  44  45  46 0
 3-21G
 ****


