%nproc=1
%NoSave
%Mem=1900MB
#P OB98/GEN NMR

erre ene a

0 1
  C     -343.433     -87.495    1000.704
  O     -344.470     -87.511     999.752
  H     -343.799     -86.997    1001.603
  H     -342.580     -86.933    1000.316
  H     -343.120     -88.507    1000.963
  P     -344.308     -88.430     998.443
  C     -346.234     -90.148     998.639
  O     -345.785     -88.926     998.050
  C     -346.877     -91.055     997.586
  O     -348.120     -90.445     997.127
  C     -345.995     -91.287     996.352
  O     -346.302     -92.605     995.851
  C     -346.518     -90.227     995.391
  O     -346.146     -90.511     994.065
  C     -348.017     -90.283     995.705
  N     -348.730     -89.090     995.233
  C     -348.671     -88.836     993.865
  O     -348.021     -89.530     993.067
  N     -349.329     -87.713     993.440
  C     -349.978     -86.820     994.234
  O     -350.525     -85.813     993.808
  C     -349.972     -87.120     995.673
  C     -349.357     -88.217     996.102
  O     -343.289     -89.517     998.537
  O     -343.970     -87.398     997.266
  H     -345.179     -90.359     993.944
  H     -343.408     -87.824     996.593
  H     -349.302     -87.512     992.448
  H     -350.469     -86.427     996.338
  H     -349.336     -88.467     997.163
  H     -348.484     -91.157     995.229
  H     -346.110     -89.237     995.651
  H     -344.924     -91.197     996.553
  H     -347.149     -92.011     998.075
  H     -346.972     -89.890     999.410
  H     -345.389     -90.656     999.115
  P     -345.438     -93.891     996.269
  C     -347.075     -95.616     995.250
  O     -345.756     -95.081     995.220
  O     -345.579     -94.288     997.705
  O     -343.927     -93.501     995.933
  H     -343.322     -93.991     996.531
  H     -347.163     -96.390     994.517
  H     -347.780     -94.840     995.035
  H     -347.274     -96.020     996.221

 6  7  8  9  10  11  12  13  14  15  16  26  31  32  33  34  35 0
 6-311+G(2d,p)
 ****
 36  37 0
 6-311+G(2d,p)
 ****
 1  2  3  4  5  17  18  19  20  21  22  23  24  25 0
 3-21G
 ****
 27  28  29  30  38  39  40  41  42  43  44  45 0
 3-21G
 ****


