%nproc=1
%NoSave
%Mem=1900MB
#P OB98/GEN NMR

erre ene a

0 1
  C      488.169     243.217    -102.773
  O      487.830     244.604    -102.599
  P      486.751     244.939    -101.455
  C      486.309     247.391    -102.183
  O      486.798     246.522    -101.169
  C      487.363     248.425    -102.603
  O      487.617     249.325    -101.495
  C      488.714     247.826    -103.021
  O      489.240     248.617    -104.105
  C      489.593     248.085    -101.803
  O      490.984     248.097    -102.137
  C      489.045     249.425    -101.334
  N      492.551     251.363     -98.246
  C      492.508     251.352     -99.630
  N      493.556     251.903    -100.281
  N      491.517     250.824    -100.317
  C      490.523     250.341     -99.532
  C      490.450     250.308     -98.163
  C      491.570     250.852     -97.423
  O      491.701     250.851     -96.191
  N      489.281     249.732     -97.730
  C      488.646     249.402     -98.850
  N      489.360     249.741     -99.967
  O      487.400     244.285    -100.138
  O      485.394     244.371    -101.726
  H      491.130     248.860    -102.735
  H      486.772     243.654     -99.738
  H      493.350     251.768     -97.782
  H      487.692     248.889     -98.901
  H      489.397     250.247    -101.972
  H      489.431     247.291    -101.070
  H      494.318     252.378     -99.826
  H      488.682     246.768    -103.311
  H      493.517     251.937    -101.300
  H      486.941     249.022    -103.422
  H      485.426     247.913    -101.816
  H      486.007     246.783    -103.044
  P      489.628     247.813    -105.450
  C      492.207     247.803    -105.100
  O      491.107     248.297    -105.840
  O      488.704     248.492    -106.553
  O      489.425     246.332    -105.353
  H      488.519     247.856    -107.276
  H      491.942     246.985    -104.431
  H      492.614     248.624    -104.492
  H      492.974     247.458    -105.793
  H      488.891     243.122    -103.557
  H      487.289     242.664    -103.029
  H      488.579     242.833    -101.862

 3  4  5  6  7  8  9  10  11  12  23  26  30  31  33  0
 6-311+G(2d,p)
 ****
 35  36  37  38 0
 6-311+G(2d,p)
 ****
 1  2  13  14  15  16  17  18  19  20  21  22  24  25  27  28  29 0
 3-21G
 ****
 32  34  39  40  41  42  43  44  45  46  47  48  49 0
 3-21G
 ****


