%nproc=1
%NoSave
%Mem=1900MB
#P OB98/GEN NMR

erre ene a

0 1
  C       -1.014     -50.597     200.410
  O       -1.804     -51.708     200.047
  P       -3.285     -51.523     199.468
  C       -4.425     -50.640     201.602
  O       -4.295     -51.734     200.702
  C       -5.366     -51.010     202.755
  O       -5.378     -49.910     203.718
  C       -6.816     -51.249     202.291
  O       -7.375     -52.493     202.714
  C       -7.536     -50.007     202.790
  O       -8.937     -50.165     202.916
  C       -6.758     -49.688     204.070
  N       -7.000     -48.330     204.550
  C       -6.795     -48.091     205.906
  O       -6.421     -48.937     206.712
  N       -7.101     -46.833     206.344
  C       -7.684     -45.846     205.606
  O       -8.022     -44.775     206.088
  C       -7.911     -46.171     204.189
  C       -7.545     -47.368     203.725
  O       -3.608     -52.344     198.264
  O       -3.384     -49.943     199.225
  H       -9.307     -50.286     202.021
  H       -3.257     -49.398     200.020
  H       -6.958     -46.645     207.324
  H       -8.383     -45.412     203.581
  H       -7.700     -47.634     202.686
  H       -7.005     -50.386     204.871
  H       -7.373     -49.208     202.056
  H       -6.877     -51.290     201.197
  H       -4.957     -51.897     203.248
  H       -4.841     -49.786     201.062
  H       -3.438     -50.345     201.975
  P       -7.980     -53.608     201.738
  C      -10.361     -53.006     202.591
  O       -9.425     -54.020     202.288
  O       -7.070     -54.751     201.437
  O       -8.319     -52.790     200.404
  H       -8.252     -53.383     199.632
  H      -11.028     -53.370     203.378
  H      -10.958     -52.789     201.702
  H       -9.869     -52.093     202.936
  H       -0.066     -50.936     200.771
  H       -1.510     -50.042     201.179
  H       -0.867     -49.970     199.556

 3  4  5  6  7  8  9  10  11  12  13  23  28  29  30  31  32 0
 6-311+G(2d,p)
 ****
 33  34 0
 6-311+G(2d,p)
 ****
 1  2  14  15  16  17  18  19  20  21  22  24  25  26  27 0
 3-21G
 ****
 35  36  37  38  39  40  41  42  43  44  45 0
 3-21G
 ****


