%nproc=1
%NoSave
%Mem=1900MB
#P OB98/GEN NMR

erre ene a

0 1
  C     -517.353    -434.803     -37.815
  O     -517.816    -435.952     -37.136
  H     -516.654    -435.113     -38.596
  H     -516.830    -434.142     -37.118
  H     -518.191    -434.267     -38.277
  P     -518.989    -435.734     -36.060
  C     -517.876    -437.105     -34.109
  O     -518.939    -436.989     -35.048
  C     -518.288    -438.042     -32.974
  O     -519.231    -437.417     -32.093
  C     -519.004    -439.304     -33.438
  O     -518.133    -440.219     -34.076
  C     -519.553    -439.805     -32.117
  O     -518.551    -440.476     -31.345
  C     -519.979    -438.472     -31.430
  N     -521.421    -438.252     -31.482
  C     -522.163    -438.931     -30.509
  O     -521.611    -439.646     -29.682
  N     -523.541    -438.792     -30.534
  C     -524.097    -438.032     -31.417
  N     -525.458    -437.948     -31.382
  C     -523.342    -437.280     -32.445
  C     -522.018    -437.452     -32.416
  O     -520.302    -436.026     -36.911
  O     -518.974    -434.418     -35.368
  H     -518.183    -441.175     -31.920
  H     -520.295    -436.876     -37.377
  H     -523.852    -436.650     -33.162
  H     -521.396    -436.937     -33.138
  H     -519.664    -438.472     -30.375
  H     -520.374    -440.518     -32.262
  H     -519.847    -439.039     -34.085
  H     -517.389    -438.280     -32.388
  H     -525.943    -438.490     -30.676
  H     -517.586    -436.124     -33.720
  H     -526.008    -437.421     -32.046
  H     -517.011    -437.519     -34.643
  P     -518.319    -440.563     -35.637
  C     -517.528    -442.973     -35.156
  O     -517.337    -441.796     -35.945
  O     -518.182    -439.401     -36.570
  O     -519.760    -441.262     -35.692
  H     -519.852    -442.077     -35.144
  H     -516.820    -443.719     -35.451
  H     -518.520    -443.344     -35.304
  H     -517.386    -442.736     -34.122

 6  7  8  9  10  11  12  13  14  15  16  26  30  31  32  33  35 0
 6-311+G(2d,p)
 ****
 37  38 0
 6-311+G(2d,p)
 ****
 1  2  3  4  5  17  18  19  20  21  22  23  24  25 0
 3-21G
 ****
 27  28  29  34  36  39  40  41  42  43  44  45  46 0
 3-21G
 ****


