%nproc=1
%NoSave
%Mem=1900MB
#P OB98/GEN NMR

erre ene a

0 1
  C       18.197      32.722    -183.891
  O       18.307      31.629    -184.787
  P       17.488      31.720    -186.164
  C       15.013      32.219    -186.790
  O       15.981      32.079    -185.754
  C       13.632      31.814    -186.286
  O       13.263      32.622    -185.154
  C       12.521      32.003    -187.304
  O       12.539      30.963    -188.260
  C       11.288      32.001    -186.409
  O       10.824      30.661    -186.172
  C       11.819      32.639    -185.103
  N       11.309      33.984    -184.893
  C        9.944      34.078    -184.594
  O        9.251      33.061    -184.543
  N        9.397      35.323    -184.401
  C       10.147      36.376    -184.503
  N        9.552      37.583    -184.296
  C       11.583      36.321    -184.836
  C       12.093      35.105    -185.022
  O       17.395      30.195    -186.633
  O       18.106      32.598    -187.202
  H       10.273      30.711    -185.364
  H       17.303      30.135    -187.603
  H       12.162      37.230    -184.909
  H       13.140      34.973    -185.271
  H       11.533      32.028    -184.238
  H       10.457      32.550    -186.859
  H       12.616      32.977    -187.800
  H       13.680      30.767    -185.958
  H        8.564      37.589    -184.077
  H       15.287      31.572    -187.629
  H       10.052      38.460    -184.331
  H       15.012      33.258    -187.135
  P       12.089      31.317    -189.756
  C        9.921      32.183    -190.817
  O       10.540      31.711    -189.637
  O       12.015      29.869    -190.439
  O       12.957      32.256    -190.524
  H       11.843      29.959    -191.393
  H        8.847      32.265    -190.642
  H       10.093      31.490    -191.645
  H       10.312      33.173    -191.073
  H       18.789      32.531    -183.021
  H       17.173      32.847    -183.605
  H       18.545      33.613    -184.371

 3  4  5  6  7  8  9  10  11  12  13  21  23  27  28  29  30  32 0
 6-311+G(2d,p)
 ****
 34  35 0
 6-311+G(2d,p)
 ****
 1  2  14  15  16  17  18  19  20  22  24  25  26 0
 3-21G
 ****
 31  33  36  37  38  39  40  41  42  43  44  45  46 0
 3-21G
 ****


