%nproc=1
%NoSave
%Mem=1900MB
#P OB98/GEN NMR

erre ene a

0 1
  C      794.880    -750.538    -691.681
  O      795.396    -751.245    -692.807
  P      794.354    -752.027    -693.762
  C      792.092    -751.214    -694.703
  O      793.476    -750.925    -694.537
  C      791.353    -750.037    -695.368
  O      791.528    -748.845    -694.533
  C      791.884    -749.657    -696.765
  O      791.301    -750.289    -697.886
  C      791.458    -748.171    -696.848
  O      790.091    -748.087    -697.252
  C      791.587    -747.691    -695.406
  N      793.679    -743.073    -694.544
  C      792.405    -743.459    -694.746
  N      791.929    -744.716    -694.963
  C      792.934    -745.613    -694.966
  C      794.276    -745.351    -694.758
  C      794.650    -744.030    -694.561
  N      795.956    -743.615    -694.338
  N      795.000    -746.531    -694.825
  C      794.105    -747.472    -695.073
  N      792.838    -746.962    -695.152
  O      793.576    -753.115    -693.125
  O      795.303    -752.575    -694.918
  H      789.844    -747.134    -697.195
  H      794.991    -753.469    -695.181
  H      791.650    -742.672    -694.721
  H      794.336    -748.516    -695.204
  H      790.774    -747.023    -695.104
  H      792.048    -747.612    -697.575
  H      792.975    -749.717    -696.806
  H      790.279    -750.263    -695.420
  H      791.643    -751.411    -693.731
  H      796.123    -742.632    -694.251
  H      796.693    -744.301    -694.422
  H      792.021    -752.133    -695.285
  P      792.140    -751.382    -698.751
  C      791.890    -753.983    -698.975
  O      791.642    -752.812    -698.232
  O      793.636    -751.193    -698.747
  O      791.479    -751.257    -700.197
  H      790.556    -751.585    -700.237
  H      791.670    -754.853    -698.352
  H      792.961    -754.017    -699.272
  H      791.260    -753.995    -699.877
  H      795.686    -750.076    -691.150
  H      794.372    -751.221    -691.033
  H      794.195    -749.787    -692.015

 3  4  5  6  7  8  9  10  11  12  22  25  29  30  31  32 0
 6-311+G(2d,p)
 ****
 33  36  37 0
 6-311+G(2d,p)
 ****
 1  2  13  14  15  16  17  18  19  20  21  23  24  26 0
 3-21G
 ****
 27  28  34  35  38  39  40  41  42  43  44  45  46  47  48 0
 3-21G
 ****


