%nproc=1
%NoSave
%Mem=1900MB
#P OB98/GEN NMR

erre ene a

0 1
  C      315.649    -351.440    -124.153
  O      316.593    -350.680    -123.427
  H      315.989    -351.520    -125.186
  H      314.669    -350.949    -124.144
  H      315.565    -352.448    -123.734
  P      316.262    -350.315    -121.897
  C      316.278    -348.053    -120.630
  O      316.168    -348.709    -121.885
  C      316.014    -346.557    -120.789
  O      316.919    -345.970    -121.758
  C      314.619    -346.201    -121.300
  O      313.606    -346.357    -120.321
  C      314.842    -344.748    -121.685
  O      314.872    -343.930    -120.499
  C      316.245    -344.823    -122.340
  N      316.188    -344.941    -123.794
  C      316.481    -343.792    -124.536
  O      316.771    -342.738    -123.967
  N      316.404    -343.847    -125.906
  C      316.049    -344.950    -126.490
  N      315.940    -344.935    -127.847
  C      315.750    -346.193    -125.753
  C      315.831    -346.120    -124.424
  O      317.165    -350.910    -120.866
  O      314.724    -350.727    -121.713
  H      315.065    -343.022    -120.784
  H      314.475    -350.533    -120.775
  H      315.445    -347.084    -126.286
  H      315.609    -346.984    -123.810
  H      316.841    -343.939    -122.082
  H      314.061    -344.351    -122.334
  H      314.382    -346.771    -122.204
  H      316.226    -346.078    -119.822
  H      316.111    -344.057    -128.318
  H      317.284    -348.236    -120.235
  H      315.412    -345.649    -128.343
  H      315.543    -348.458    -119.924
  P      312.517    -347.510    -120.543
  C      309.908    -347.454    -120.521
  O      311.116    -346.770    -120.824
  O      312.336    -348.125    -119.079
  O      312.864    -348.553    -121.567
  H      312.914    -348.904    -118.949
  H      309.074    -346.829    -120.764
  H      309.884    -347.691    -119.478
  H      309.856    -348.357    -121.093

 6  7  8  9  10  11  12  13  14  15  16  26  30  31  32  33  35 0
 6-311+G(2d,p)
 ****
 37  38 0
 6-311+G(2d,p)
 ****
 1  2  3  4  5  17  18  19  20  21  22  23  24  25 0
 3-21G
 ****
 27  28  29  34  36  39  40  41  42  43  44  45  46 0
 3-21G
 ****


