%nproc=1
%NoSave
%Mem=1900MB
#P OB98/GEN NMR

erre ene a

0 1
  C     -363.427    -222.070      41.661
  O     -363.317    -220.854      42.378
  H     -363.997    -222.782      42.259
  H     -362.431    -222.485      41.469
  H     -363.949    -221.904      40.715
  P     -362.455    -219.692      41.682
  C     -364.587    -218.285      41.237
  O     -363.450    -218.931      40.678
  C     -364.644    -216.826      40.787
  O     -364.669    -216.735      39.346
  C     -365.860    -216.063      41.295
  O     -365.641    -215.576      42.609
  C     -365.961    -214.944      40.265
  O     -365.016    -213.891      40.552
  C     -365.584    -215.670      38.968
  N     -368.349    -215.244      34.761
  C     -367.319    -214.458      35.232
  N     -366.988    -213.379      34.490
  N     -366.671    -214.699      36.345
  C     -367.143    -215.774      37.015
  C     -368.159    -216.632      36.653
  C     -368.830    -216.385      35.394
  O     -369.694    -217.092      34.884
  N     -368.332    -217.621      37.591
  C     -367.445    -217.341      38.530
  N     -366.705    -216.226      38.227
  O     -361.478    -220.493      40.694
  O     -361.683    -218.821      42.613
  H     -364.119    -214.203      40.341
  H     -360.606    -220.053      40.691
  H     -368.790    -215.034      33.884
  H     -367.296    -217.916      39.437
  H     -365.048    -215.013      38.271
  H     -366.950    -214.480      40.266
  H     -367.622    -212.987      33.804
  H     -366.767    -216.680      41.248
  H     -366.280    -212.763      34.873
  H     -363.718    -216.344      41.124
  H     -364.518    -218.326      42.328
  H     -365.492    -218.806      40.914
  P     -366.909    -215.406      43.576
  C     -366.874    -217.811      44.564
  O     -367.574    -216.856      43.780
  O     -367.968    -214.634      42.646
  O     -366.642    -214.640      44.827
  H     -368.026    -213.699      42.918
  H     -367.438    -218.719      44.607
  H     -366.737    -217.428      45.554
  H     -365.919    -218.005      44.121

 6  7  8  9  10  11  12  13  14  15  26  29  33  34 0
 6-311+G(2d,p)
 ****
 36  38  39  40  41 0
 6-311+G(2d,p)
 ****
 1  2  3  4  5  16  17  18  19  20  21  22  23  24  25 0
 3-21G
 ****
 27  28  30  31  32  35  37  42  43  44  45  46  47 0
 3-21G
 ****
 48  49 0
 3-21G
 ****


