%nproc=1
%NoSave
%Mem=1900MB
#P OB98/GEN NMR

erre ene a

0 1
  C      -26.758     -42.549      31.261
  O      -25.662     -42.261      32.109
  H      -26.546     -43.473      30.718
  H      -26.898     -41.740      30.540
  H      -27.666     -42.686      31.854
  P      -25.790     -40.944      33.018
  C      -25.260     -39.258      31.126
  O      -26.249     -39.800      31.992
  C      -25.719     -37.914      30.567
  O      -26.973     -38.054      29.876
  C      -25.946     -36.839      31.623
  O      -24.719     -36.242      32.009
  C      -26.828     -35.868      30.854
  O      -26.015     -35.053      29.987
  C      -27.709     -36.809      30.013
  N      -32.760     -36.013      29.563
  C      -31.703     -35.448      28.941
  N      -30.389     -35.677      29.141
  C      -30.206     -36.600      30.099
  C      -31.187     -37.264      30.821
  C      -32.520     -36.945      30.514
  N      -33.596     -37.533      31.144
  N      -30.622     -38.141      31.722
  C      -29.325     -38.048      31.510
  N      -29.020     -37.102      30.563
  O      -24.611     -40.633      33.874
  O      -27.146     -41.254      33.813
  H      -25.400     -34.548      30.551
  H      -27.792     -41.688      33.230
  H      -31.947     -34.713      28.178
  H      -28.569     -38.650      32.001
  H      -27.877     -36.414      29.005
  H      -27.370     -35.187      31.513
  H      -26.505     -37.230      32.479
  H      -24.976     -37.587      29.829
  H      -25.052     -39.952      30.305
  H      -34.505     -37.126      30.988
  H      -33.413     -38.132      31.935
  H      -24.345     -39.131      31.712
  P      -24.412     -35.931      33.551
  C      -25.983     -33.906      33.348
  O      -25.651     -35.068      34.099
  O      -23.074     -35.333      33.820
  O      -24.595     -37.335      34.290
  H      -23.926     -37.438      34.994
  H      -26.817     -33.414      33.803
  H      -26.237     -34.188      32.348
  H      -25.144     -33.242      33.329

 6  7  8  9  10  11  12  13  14  15  25  28  32  33  34  35 0
 6-311+G(2d,p)
 ****
 36  39  40 0
 6-311+G(2d,p)
 ****
 1  2  3  4  5  16  17  18  19  20  21  22  23  24 0
 3-21G
 ****
 26  27  29  30  31  37  38  41  42  43  44  45  46  47 0
 3-21G
 ****
 48 0
 3-21G
 ****


