%nproc=1
%NoSave
%Mem=1900MB
#P OB98/GEN NMR

erre ene a

0 1
  C      292.838     441.114     521.194
  O      292.456     440.135     522.138
  H      293.823     440.882     520.778
  H      292.107     441.125     520.383
  H      292.855     442.101     521.665
  P      293.469     439.892     523.361
  C      292.099     441.298     525.053
  O      293.316     441.160     524.336
  C      292.385     441.586     526.521
  O      293.258     440.576     527.065
  C      293.086     442.912     526.786
  O      292.185     444.008     526.742
  C      293.612     442.675     528.198
  O      292.555     442.891     529.153
  C      293.991     441.186     528.163
  N      298.003     438.260     529.486
  C      296.701     438.232     529.860
  N      295.695     439.043     529.478
  C      296.131     439.964     528.599
  C      297.424     440.117     528.125
  C      298.388     439.215     528.609
  N      299.713     439.266     528.232
  N      297.494     441.159     527.224
  C      296.262     441.628     527.155
  N      295.405     440.944     527.973
  O      294.913     440.108     522.698
  O      293.364     438.558     524.022
  H      292.413     443.856     529.201
  H      295.544     439.489     523.111
  H      296.432     437.442     530.556
  H      295.953     442.454     526.527
  H      293.676     440.671     529.078
  H      294.437     443.337     528.467
  H      293.932     443.058     526.107
  H      291.434     441.535     527.071
  H      291.522     440.372     524.973
  H      300.308     438.481     528.454
  H      299.993     439.976     527.568
  H      291.520     442.116     524.611
  P      292.805     445.464     526.459
  C      292.306     445.438     523.911
  O      293.298     445.429     524.930
  O      294.173     445.445     527.287
  O      291.934     446.610     526.843
  H      294.433     446.356     527.518
  H      292.780     445.412     522.952
  H      291.717     446.328     523.994
  H      291.675     444.581     524.020

 6  7  8  9  10  11  12  13  14  15  25  28  32  33  34  35 0
 6-311+G(2d,p)
 ****
 36  39  40 0
 6-311+G(2d,p)
 ****
 1  2  3  4  5  16  17  18  19  20  21  22  23  24 0
 3-21G
 ****
 26  27  29  30  31  37  38  41  42  43  44  45  46  47  48 0
 3-21G
 ****


