%nproc=1
%NoSave
%Mem=1900MB
#P OB98/GEN NMR

erre ene a

0 1
  C      182.844    -144.227     -43.590
  O      182.513    -145.593     -43.406
  P      181.677    -146.407     -44.503
  C      179.181    -146.891     -44.910
  O      180.128    -146.189     -44.119
  C      177.773    -146.308     -44.748
  O      177.835    -144.857     -44.881
  C      176.743    -146.822     -45.759
  O      175.485    -146.867     -45.072
  C      176.737    -145.723     -46.813
  O      175.571    -145.743     -47.625
  C      176.911    -144.473     -45.927
  N      177.382    -143.327     -46.690
  C      176.414    -142.600     -47.390
  O      175.240    -142.991     -47.413
  N      176.795    -141.490     -48.100
  C      178.061    -141.189     -48.185
  N      178.387    -140.074     -48.893
  C      179.128    -142.001     -47.562
  C      178.720    -143.036     -46.826
  O      182.087    -147.830     -44.687
  O      181.827    -145.527     -45.830
  H      175.569    -144.931     -48.182
  H      182.719    -145.667     -46.239
  H      180.170    -141.748     -47.704
  H      179.429    -143.690     -46.328
  H      175.954    -144.214     -45.442
  H      177.607    -145.843     -47.473
  H      176.993    -147.801     -46.178
  H      177.435    -146.524     -43.724
  H      177.623    -139.538     -49.286
  H      179.164    -147.931     -44.573
  H      179.329    -139.713     -48.951
  H      179.484    -146.880     -45.959
  P      174.578    -148.189     -45.072
  C      173.645    -149.671     -46.948
  O      173.992    -148.352     -46.554
  O      173.555    -148.256     -43.983
  O      175.635    -149.392     -44.962
  H      175.165    -150.212     -44.702
  H      173.006    -149.621     -47.836
  H      173.096    -150.182     -46.145
  H      174.555    -150.232     -47.180
  H      183.401    -143.878     -42.745
  H      181.947    -143.653     -43.688
  H      183.435    -144.119     -44.476

 3  4  5  6  7  8  9  10  11  12  13  23  27  28  29  30  32 0
 6-311+G(2d,p)
 ****
 34  35 0
 6-311+G(2d,p)
 ****
 1  2  14  15  16  17  18  19  20  21  22  24  25  26 0
 3-21G
 ****
 31  33  36  37  38  39  40  41  42  43  44  45  46 0
 3-21G
 ****


