%nproc=1
%NoSave
%Mem=1900MB
#P OB98/GEN NMR

erre ene a

0 1
  C      123.828      98.463    -192.525
  O      124.415      97.777    -193.612
  H      124.601      98.651    -191.774
  H      123.046      97.851    -192.070
  H      123.413      99.421    -192.846
  P      123.532      97.511    -194.923
  C      125.655      96.438    -195.921
  O      124.249      96.333    -195.737
  C      126.215      95.105    -196.411
  O      125.876      94.050    -195.484
  C      125.662      94.663    -197.759
  O      126.258      95.385    -198.819
  C      125.993      93.180    -197.732
  O      127.364      92.952    -198.092
  C      125.746      92.831    -196.248
  N      124.445      92.202    -196.022
  C      124.355      90.843    -196.311
  O      125.289      90.186    -196.766
  N      123.133      90.266    -196.086
  C      121.994      90.922    -195.719
  O      120.901      90.372    -195.618
  C      122.143      92.359    -195.452
  C      123.342      92.923    -195.610
  O      123.191      98.719    -195.729
  O      122.215      96.799    -194.351
  H      127.470      93.296    -199.001
  H      121.476      97.436    -194.356
  H      123.044      89.287    -196.302
  H      121.265      92.910    -195.144
  H      123.470      93.982    -195.424
  H      126.523      92.147    -195.884
  H      125.380      92.607    -198.427
  H      124.572      94.781    -197.776
  H      127.311      95.184    -196.446
  H      126.117      96.697    -194.962
  H      125.861      97.235    -196.643
  P      125.669      95.260    -200.301
  C      127.542      96.714    -201.290
  O      126.883      95.452    -201.329
  O      124.464      96.095    -200.582
  O      125.323      93.703    -200.442
  H      124.367      93.598    -200.610
  H      128.330      96.728    -202.014
  H      127.952      96.872    -200.314
  H      126.840      97.490    -201.512

 6  7  8  9  10  11  12  13  14  15  16  26  31  32  33  34  35 0
 6-311+G(2d,p)
 ****
 36  37 0
 6-311+G(2d,p)
 ****
 1  2  3  4  5  17  18  19  20  21  22  23  24  25 0
 3-21G
 ****
 27  28  29  30  38  39  40  41  42  43  44  45 0
 3-21G
 ****


