%nproc=1
%NoSave
%Mem=1900MB
#P OB98/GEN NMR

erre ene a

0 1
  C      151.743      57.257      72.965
  O      152.375      57.523      71.733
  H      152.213      57.869      73.738
  H      151.875      56.203      73.223
  H      150.677      57.495      72.929
  P      151.619      57.131      70.380
  C      153.649      55.731      69.620
  O      152.244      55.754      69.838
  C      154.077      54.502      68.818
  O      153.968      53.322      69.643
  C      153.193      54.265      67.591
  O      153.600      54.966      66.429
  C      153.322      52.757      67.395
  O      154.451      52.433      66.566
  C      153.534      52.231      68.819
  N      151.510      48.519      71.694
  C      152.810      48.655      71.242
  N      153.657      47.656      71.570
  N      153.220      49.667      70.524
  C      152.236      50.534      70.193
  C      150.911      50.493      70.565
  C      150.481      49.408      71.421
  O      149.348      49.252      71.861
  N      150.198      51.524      70.003
  C      151.073      52.132      69.227
  N      152.340      51.617      69.371
  O      152.172      58.201      69.320
  O      150.122      57.175      70.441
  H      154.416      51.477      66.369
  H      151.483      58.391      68.658
  H      151.261      47.734      72.266
  H      150.855      52.973      68.579
  H      154.325      51.473      68.851
  H      152.439      52.352      66.895
  H      153.375      46.815      72.045
  H      152.147      54.490      67.818
  H      154.565      47.621      71.101
  H      155.133      54.601      68.538
  H      154.116      55.715      70.606
  H      153.972      56.647      69.118
  P      152.667      55.019      65.133
  C      154.400      53.845      63.548
  O      153.119      53.857      64.138
  O      153.155      56.350      64.391
  O      151.198      55.032      65.399
  H      152.554      57.093      64.588
  H      154.495      52.984      62.920
  H      155.146      53.811      64.315
  H      154.531      54.731      62.962

 6  7  8  9  10  11  12  13  14  15  26  29  33  34 0
 6-311+G(2d,p)
 ****
 36  38  39  40  41 0
 6-311+G(2d,p)
 ****
 1  2  3  4  5  16  17  18  19  20  21  22  23  24  25 0
 3-21G
 ****
 27  28  30  31  32  35  37  42  43  44  45  46  47 0
 3-21G
 ****
 48  49 0
 3-21G
 ****


