%nproc=1
%NoSave
%Mem=1900MB
#P OB98/GEN NMR

erre ene a

0 1
  C       63.345    -113.843      25.084
  O       62.084    -114.293      24.627
  H       63.919    -114.706      25.435
  H       63.226    -113.142      25.916
  H       63.896    -113.365      24.268
  P       61.019    -113.206      24.132
  C       59.531    -113.635      26.207
  O       60.266    -112.681      25.446
  C       58.172    -113.066      26.614
  O       58.339    -112.014      27.584
  C       57.387    -112.448      25.462
  O       56.830    -113.454      24.640
  C       56.383    -111.602      26.232
  O       55.316    -112.414      26.748
  C       57.266    -111.064      27.386
  N       57.797    -109.727      27.136
  C       57.258    -108.695      27.914
  O       56.377    -108.935      28.739
  N       57.722    -107.417      27.717
  C       58.668    -107.193      26.859
  N       59.087    -105.906      26.714
  C       59.287    -108.257      26.045
  C       58.800    -109.485      26.225
  O       60.103    -113.633      23.025
  O       61.917    -111.953      23.704
  H       54.948    -111.923      27.511
  H       62.111    -111.980      22.746
  H       60.081    -108.027      25.348
  H       59.202    -110.325      25.664
  H       56.694    -111.031      28.324
  H       55.928    -110.832      25.611
  H       58.030    -111.775      24.881
  H       57.600    -113.871      27.094
  H       58.646    -105.213      27.312
  H       60.125    -113.862      27.099
  H       59.915    -105.642      26.203
  H       59.395    -114.562      25.638
  P       56.451    -113.171      23.107
  C       53.981    -112.591      23.537
  O       55.254    -112.100      23.145
  O       56.179    -114.385      22.284
  O       57.680    -112.298      22.569
  H       58.462    -112.874      22.389
  H       53.271    -111.791      23.524
  H       54.044    -112.996      24.525
  H       53.669    -113.356      22.857

 6  7  8  9  10  11  12  13  14  15  16  26  30  31  32  33  35 0
 6-311+G(2d,p)
 ****
 37  38 0
 6-311+G(2d,p)
 ****
 1  2  3  4  5  17  18  19  20  21  22  23  24  25 0
 3-21G
 ****
 27  28  29  34  36  39  40  41  42  43  44  45  46 0
 3-21G
 ****


