%nproc=1
%NoSave
%Mem=1900MB
#P OB98/GEN NMR

erre ene a

0 1
  C       51.391      35.641      86.619
  O       52.486      34.977      87.231
  P       53.017      35.419      88.682
  C       54.279      37.465      89.595
  O       53.806      36.794      88.433
  C       55.465      38.359      89.241
  O       56.501      37.532      88.658
  C       55.191      39.452      88.204
  O       54.635      40.643      88.736
  C       56.609      39.733      87.714
  O       57.299      40.570      88.664
  C       57.231      38.334      87.692
  N       59.601      37.691      83.197
  C       59.959      38.353      84.325
  N       59.262      38.494      85.474
  C       58.099      37.822      85.408
  C       57.604      37.101      84.331
  C       58.412      37.046      83.181
  N       58.055      36.352      82.044
  N       56.361      36.568      84.631
  C       56.128      36.953      85.869
  N       57.148      37.706      86.385
  O       53.765      34.362      89.415
  O       51.701      35.897      89.454
  H       56.751      41.370      88.785
  H       51.871      35.936      90.417
  H       60.931      38.842      84.296
  H       55.232      36.716      86.430
  H       58.285      38.335      87.999
  H       56.629      40.256      86.752
  H       54.592      39.070      87.368
  H       55.864      38.794      90.168
  H       54.602      36.712      90.323
  H       58.752      36.261      81.318
  H       57.251      35.743      82.089
  H       53.464      38.048      90.042
  P       53.404      41.300      87.932
  C       53.129      42.212      85.494
  O       53.960      41.601      86.458
  O       52.755      42.451      88.624
  O       52.421      40.050      87.710
  H       52.760      39.360      87.116
  H       53.738      42.473      84.622
  H       52.679      43.124      85.888
  H       52.345      41.515      85.179
  H       51.195      35.200      85.664
  H       51.628      36.677      86.492
  H       50.525      35.547      87.240

 3  4  5  6  7  8  9  10  11  12  22  25  29  30  31  32 0
 6-311+G(2d,p)
 ****
 33  36  37 0
 6-311+G(2d,p)
 ****
 1  2  13  14  15  16  17  18  19  20  21  23  24  26 0
 3-21G
 ****
 27  28  34  35  38  39  40  41  42  43  44  45  46  47  48 0
 3-21G
 ****


