%nproc=1
%NoSave
%Mem=1900MB
#P OB98/GEN NMR

erre ene a

0 1
  C     -571.837    1663.341      36.811
  O     -571.591    1664.653      36.368
  H     -571.951    1662.694      35.931
  H     -572.741    1663.306      37.392
  H     -570.980    1662.973      37.400
  P     -571.245    1665.792      37.444
  C     -568.763    1666.237      36.797
  O     -569.659    1665.680      37.763
  C     -567.379    1666.470      37.430
  O     -567.499    1667.429      38.504
  C     -566.757    1665.176      38.006
  O     -565.366    1665.193      37.763
  C     -567.024    1665.307      39.502
  O     -566.072    1664.598      40.273
  C     -566.975    1666.818      39.693
  N     -566.778    1669.566      43.953
  C     -565.858    1669.436      42.917
  N     -564.702    1670.107      43.083
  N     -566.042    1668.694      41.871
  C     -567.263    1668.077      41.859
  C     -568.247    1668.130      42.793
  C     -568.025    1668.936      43.968
  O     -568.812    1669.080      44.907
  N     -569.346    1667.364      42.398
  C     -568.974    1666.833      41.254
  N     -567.737    1667.245      40.870
  O     -572.108    1665.810      38.651
  O     -571.336    1667.163      36.637
  H     -565.185    1664.970      40.057
  H     -572.152    1667.650      36.872
  H     -566.593    1670.118      44.730
  H     -569.579    1666.174      40.643
  H     -565.950    1667.181      39.843
  H     -568.033    1664.936      39.746
  H     -564.503    1670.722      43.857
  H     -567.208    1664.283      37.579
  H     -564.005    1670.062      42.330
  H     -566.723    1666.890      36.657
  H     -569.204    1667.201      36.495
  H     -568.703    1665.591      35.939
  P     -564.775    1664.291      36.542
  C     -563.320    1666.347      35.992
  O     -564.087    1665.272      35.476
  O     -565.739    1663.291      36.002
  O     -563.504    1663.567      37.230
  H     -563.424    1662.684      36.836
  H     -562.919    1666.920      35.182
  H     -562.518    1665.960      36.586
  H     -563.943    1666.972      36.597

 6  7  8  9  10  11  12  13  14  15  26  29  33  34 0
 6-311+G(2d,p)
 ****
 36  38  39  40  41 0
 6-311+G(2d,p)
 ****
 1  2  3  4  5  16  17  18  19  20  21  22  23  24  25 0
 3-21G
 ****
 27  28  30  31  32  35  37  42  43  44  45  46  47 0
 3-21G
 ****
 48  49 0
 3-21G
 ****


