%nproc=1
%NoSave
%Mem=1900MB
#P OB98/GEN NMR

erre ene a

0 1
  C      230.022     329.495     -42.097
  O      229.352     329.982     -43.246
  P      229.740     331.431     -43.805
  C      227.223     332.082     -44.190
  O      228.521     331.905     -44.733
  C      226.196     332.252     -45.314
  O      226.460     333.508     -46.004
  C      226.213     331.137     -46.366
  O      224.859     330.939     -46.798
  C      227.043     331.742     -47.485
  O      226.802     331.123     -48.740
  C      226.606     333.208     -47.406
  N      227.550     334.133     -48.033
  C      227.208     334.678     -49.266
  O      226.172     334.407     -49.870
  N      228.126     335.535     -49.812
  C      229.353     335.841     -49.294
  O      230.145     336.602     -49.835
  C      229.677     335.199     -48.010
  C      228.776     334.399     -47.447
  O      230.898     331.063     -44.844
  O      230.132     332.400     -42.742
  H      230.743     330.218     -45.304
  H      227.399     331.527     -49.396
  H      227.886     335.969     -50.688
  H      230.649     335.406     -47.576
  H      228.994     333.911     -46.504
  H      225.616     333.328     -47.865
  H      228.106     331.629     -47.248
  H      226.620     330.200     -45.977
  H      225.202     332.336     -44.857
  H      227.213     332.975     -43.558
  H      226.975     331.220     -43.562
  P      224.145     329.541     -46.439
  C      224.043     328.722     -48.924
  O      223.347     329.065     -47.744
  O      222.975     330.059     -45.474
  O      225.035     328.534     -45.784
  H      222.485     330.811     -45.844
  H      223.380     328.121     -49.556
  H      224.938     328.142     -48.708
  H      224.313     329.632     -49.466
  H      229.651     328.521     -41.854
  H      229.849     330.158     -41.275
  H      231.072     329.438     -42.294

 3  4  5  6  7  8  9  10  11  12  13  24  28  29  30  31  32 0
 6-311+G(2d,p)
 ****
 33  34 0
 6-311+G(2d,p)
 ****
 1  2  14  15  16  17  18  19  20  21  22  23  25  26  27 0
 3-21G
 ****
 35  36  37  38  39  40  41  42  43  44  45 0
 3-21G
 ****


