%nproc=1
%NoSave
%Mem=1900MB
#P OB98/GEN NMR

erre ene a

0 1
  C      386.007     247.524    -385.489
  O      386.112     246.238    -384.915
  P      386.011     244.912    -385.812
  C      388.313     243.969    -385.156
  O      387.525     244.529    -386.195
  C      389.366     243.015    -385.708
  O      388.715     241.931    -386.428
  C      390.377     243.658    -386.669
  O      391.621     242.982    -386.464
  C      389.799     243.317    -388.031
  O      390.760     243.422    -389.074
  C      389.263     241.905    -387.766
  N      388.272     241.504    -388.759
  C      388.665     240.531    -389.681
  O      389.827     240.116    -389.683
  N      387.760     240.100    -390.619
  C      386.594     240.663    -390.690
  N      385.736     240.190    -391.631
  C      386.184     241.781    -389.815
  C      387.055     242.137    -388.871
  O      385.071     244.995    -386.965
  O      385.627     243.772    -384.753
  H      391.460     242.752    -388.919
  H      384.665     243.829    -384.522
  H      385.224     242.256    -389.946
  H      386.843     242.941    -388.186
  H      390.078     241.172    -387.769
  H      388.978     244.002    -388.265
  H      390.494     244.737    -386.525
  H      389.903     242.564    -384.863
  H      386.052     239.415    -392.196
  H      387.652     243.412    -384.489
  H      384.781     240.502    -391.715
  H      388.784     244.772    -384.571
  P      393.022     243.696    -386.795
  C      393.583     244.121    -384.340
  O      393.322     244.707    -385.602
  O      393.120     244.286    -388.166
  O      394.112     242.536    -386.577
  H      394.952     242.800    -386.998
  H      394.045     244.869    -383.687
  H      394.259     243.268    -384.434
  H      392.643     243.791    -383.887
  H      386.101     248.265    -384.723
  H      385.055     247.624    -385.968
  H      386.785     247.657    -386.211

 3  4  5  6  7  8  9  10  11  12  13  23  27  28  29  30  32 0
 6-311+G(2d,p)
 ****
 34  35 0
 6-311+G(2d,p)
 ****
 1  2  14  15  16  17  18  19  20  21  22  24  25  26 0
 3-21G
 ****
 31  33  36  37  38  39  40  41  42  43  44  45  46 0
 3-21G
 ****


