%nproc=1
%NoSave
%Mem=1900MB
#P OB98/GEN NMR

erre ene a

0 1
  C     -412.349       3.202      54.953
  O     -411.287       2.438      54.413
  H     -413.150       2.523      55.255
  H     -412.735       3.893      54.201
  H     -412.005       3.755      55.831
  P     -409.993       3.253      53.931
  C     -409.413       4.038      56.329
  O     -409.829       4.416      55.023
  C     -408.620       5.166      56.984
  O     -408.483       4.934      58.396
  C     -407.203       5.330      56.452
  O     -407.200       6.056      55.233
  C     -406.565       6.121      57.582
  O     -406.927       7.513      57.467
  C     -407.224       5.511      58.832
  N     -404.588       4.313      63.071
  C     -405.108       5.481      62.638
  N     -405.758       5.735      61.482
  C     -405.852       4.625      60.733
  C     -405.370       3.363      61.045
  C     -404.718       3.222      62.282
  N     -404.198       2.025      62.724
  N     -405.650       2.467      60.032
  C     -406.335       3.167      59.151
  N     -406.453       4.485      59.511
  O     -409.993       3.680      52.504
  O     -408.824       2.237      54.336
  H     -406.731       7.792      56.554
  H     -409.024       1.808      55.187
  H     -404.989       6.326      63.309
  H     -406.780       2.765      58.249
  H     -407.455       6.275      59.583
  H     -405.473       6.074      57.559
  H     -406.695       4.364      56.359
  H     -409.195       6.094      56.861
  H     -408.802       3.129      56.285
  H     -403.602       2.050      63.538
  H     -404.188       1.246      62.083
  H     -410.314       3.821      56.910
  P     -405.837       6.288      54.422
  C     -406.459       4.312      52.898
  O     -405.465       4.881      53.742
  O     -404.734       6.907      55.208
  O     -406.259       7.193      53.175
  H     -405.564       7.849      52.981
  H     -406.103       3.383      52.504
  H     -406.670       4.984      52.092
  H     -407.351       4.141      53.463

 6  7  8  9  10  11  12  13  14  15  25  28  32  33  34  35 0
 6-311+G(2d,p)
 ****
 36  39  40 0
 6-311+G(2d,p)
 ****
 1  2  3  4  5  16  17  18  19  20  21  22  23  24 0
 3-21G
 ****
 26  27  29  30  31  37  38  41  42  43  44  45  46  47 0
 3-21G
 ****
 48 0
 3-21G
 ****


