%nproc=1
%NoSave
%Mem=1900MB
#P OB98/GEN NMR

erre ene a

0 1
  C      579.524     324.491    -801.749
  O      580.767     324.093    -802.279
  H      579.559     324.391    -800.659
  H      578.732     323.839    -802.139
  H      579.297     325.534    -802.000
  P      581.113     324.474    -803.798
  C      581.156     322.040    -804.659
  O      581.902     323.221    -804.435
  C      581.753     321.213    -805.810
  O      581.631     321.964    -807.041
  C      583.247     320.975    -805.573
  O      583.702     319.762    -806.181
  C      583.899     322.149    -806.286
  O      585.265     321.917    -806.633
  C      582.957     322.327    -807.479
  N      585.471     325.884    -810.123
  C      585.906     324.656    -809.685
  N      587.189     324.343    -809.966
  N      585.161     323.814    -809.015
  C      583.924     324.302    -808.733
  C      583.380     325.506    -809.096
  C      584.210     326.415    -809.869
  O      583.881     327.531    -810.271
  N      582.108     325.658    -808.614
  C      581.874     324.536    -807.963
  N      582.945     323.669    -808.016
  O      582.275     325.578    -803.658
  O      579.971     324.985    -804.620
  H      585.580     322.704    -807.093
  H      582.295     326.147    -804.449
  H      586.074     326.482    -810.654
  H      580.957     324.289    -807.444
  H      583.249     321.650    -808.295
  H      583.885     323.007    -805.599
  H      587.858     325.021    -810.324
  H      583.498     320.959    -804.510
  H      587.613     323.585    -809.414
  H      581.189     320.287    -805.948
  H      580.132     322.341    -804.902
  H      581.111     321.440    -803.743
  P      584.328     318.638    -805.215
  C      586.347     317.776    -806.643
  O      585.038     317.557    -806.142
  O      583.034     317.883    -804.639
  O      585.183     319.189    -804.124
  H      582.887     318.142    -803.710
  H      586.645     316.940    -807.241
  H      587.027     317.890    -805.825
  H      586.356     318.663    -807.241

 6  7  8  9  10  11  12  13  14  15  26  29  33  34 0
 6-311+G(2d,p)
 ****
 36  38  39  40  41 0
 6-311+G(2d,p)
 ****
 1  2  3  4  5  16  17  18  19  20  21  22  23  24  25 0
 3-21G
 ****
 27  28  30  31  32  35  37  42  43  44  45  46  47 0
 3-21G
 ****
 48  49 0
 3-21G
 ****


