%nproc=1
%NoSave
%Mem=1900MB
#P OB98/GEN NMR

erre ene a

0 1
  C     1364.507    -333.334     759.671
  O     1364.483    -334.711     759.257
  P     1363.035    -335.321     758.938
  C     1362.757    -335.972     761.435
  O     1362.696    -336.396     760.088
  C     1362.185    -337.050     762.381
  O     1360.831    -337.366     762.042
  C     1362.944    -338.367     762.321
  O     1364.164    -338.323     763.069
  C     1361.928    -339.319     762.943
  O     1362.030    -339.248     764.393
  C     1360.598    -338.756     762.472
  N     1358.895    -343.233     760.821
  C     1359.393    -342.877     762.054
  N     1359.440    -343.836     762.996
  N     1359.840    -341.675     762.342
  C     1359.724    -340.796     761.336
  C     1359.232    -341.013     760.044
  C     1358.772    -342.377     759.735
  O     1358.361    -342.740     758.658
  N     1359.227    -339.887     759.282
  C     1359.718    -338.960     760.102
  N     1360.009    -339.455     761.357
  O     1363.306    -336.270     757.654
  O     1361.979    -334.307     758.672
  H     1361.827    -338.314     764.627
  H     1362.512    -336.356     757.121
  H     1358.589    -344.166     760.641
  H     1359.840    -337.911     759.849
  H     1359.851    -338.716     763.285
  H     1362.106    -340.371     762.658
  H     1359.062    -344.748     762.872
  H     1363.128    -338.660     761.255
  H     1359.777    -343.606     763.927
  H     1362.222    -336.666     763.403
  H     1362.150    -335.037     761.568
  H     1363.793    -335.722     761.693
  P     1365.439    -337.698     762.353
  C     1366.194    -339.951     761.350
  O     1366.505    -338.896     762.203
  O     1366.066    -336.792     763.501
  O     1365.154    -336.927     761.115
  H     1366.557    -336.018     763.108
  H     1365.780    -339.594     760.402
  H     1365.474    -340.639     761.833
  H     1367.113    -340.530     761.126
  H     1365.518    -333.035     759.856
  H     1363.932    -333.221     760.566
  H     1364.089    -332.722     758.899

 3  4  5  6  7  8  9  10  11  12  23  26  30  31  33  0
 6-311+G(2d,p)
 ****
 35  36  37  38 0
 6-311+G(2d,p)
 ****
 1  2  13  14  15  16  17  18  19  20  21  22  24  25  27  28  29 0
 3-21G
 ****
 32  34  39  40  41  42  43  44  45  46  47  48  49 0
 3-21G
 ****


