%nproc=1
%NoSave
%Mem=1900MB
#P OB98/GEN NMR

erre ene a

0 1
  C       11.460     -91.634    -331.249
  O       12.585     -92.468    -331.442
  H       11.807     -90.612    -331.075
  H       10.902     -91.970    -330.368
  H       10.811     -91.642    -332.129
  P       12.306     -93.934    -332.036
  C       11.661     -94.988    -329.750
  O       11.235     -94.626    -331.057
  C       11.315     -96.442    -329.465
  O        9.888     -96.655    -329.556
  C       11.960     -97.443    -330.428
  O       13.293     -97.756    -330.044
  C       11.043     -98.639    -330.248
  O       11.360     -99.312    -329.008
  C        9.664     -97.971    -330.134
  N        7.232    -100.378    -333.880
  C        7.878    -100.891    -332.772
  N        7.888    -102.236    -332.648
  N        8.468    -100.153    -331.865
  C        8.404     -98.826    -332.136
  C        7.796     -98.200    -333.199
  C        7.137     -99.027    -334.186
  O        6.537     -98.620    -335.179
  N        7.936     -96.835    -333.138
  C        8.645     -96.642    -332.042
  N        8.957     -97.818    -331.398
  O       13.675     -94.709    -331.716
  O       11.984     -93.980    -333.494
  H       12.307     -99.540    -329.039
  H       14.203     -94.770    -332.534
  H        6.803    -100.995    -334.550
  H        8.952     -95.676    -331.664
  H        8.987     -98.514    -329.459
  H       11.147     -99.379    -331.043
  H        7.473    -102.865    -333.318
  H       11.906     -97.093    -331.469
  H        8.355    -102.633    -331.842
  H       11.610     -96.664    -328.428
  H       11.155     -94.341    -329.016
  H       12.743     -94.836    -329.671
  P       14.374     -98.020    -331.198
  C       14.721    -100.534    -330.667
  O       14.262     -99.567    -331.605
  O       15.762     -97.937    -330.406
  O       14.340     -97.051    -332.335
  H       16.255     -97.137    -330.681
  H       14.585    -101.515    -331.071
  H       14.164    -100.442    -329.758
  H       15.759    -100.371    -330.466

 6  7  8  9  10  11  12  13  14  15  26  29  33  34 0
 6-311+G(2d,p)
 ****
 36  38  39  40  41 0
 6-311+G(2d,p)
 ****
 1  2  3  4  5  16  17  18  19  20  21  22  23  24  25 0
 3-21G
 ****
 27  28  30  31  32  35  37  42  43  44  45  46  47 0
 3-21G
 ****
 48  49 0
 3-21G
 ****


