%nproc=1
%NoSave
%Mem=1900MB
#P OB98/GEN NMR

erre ene a

0 1
  C     -283.949     511.983    -306.965
  O     -283.652     513.153    -307.713
  P     -284.550     513.456    -309.006
  C     -284.609     512.538    -311.440
  O     -284.209     512.322    -310.091
  C     -285.458     511.364    -311.940
  O     -284.634     510.161    -311.971
  C     -286.700     511.052    -311.087
  O     -287.719     510.600    -311.990
  C     -286.194     509.917    -310.211
  O     -287.232     509.176    -309.592
  C     -285.348     509.149    -311.222
  N     -284.920     504.873    -308.434
  C     -285.999     505.503    -308.968
  N     -286.035     506.633    -309.705
  C     -284.785     507.111    -309.880
  C     -283.602     506.601    -309.391
  C     -283.690     505.425    -308.629
  N     -282.604     504.786    -308.081
  N     -282.532     507.393    -309.764
  C     -283.064     508.369    -310.462
  N     -284.423     508.229    -310.594
  O     -283.857     514.760    -309.632
  O     -286.004     513.675    -308.733
  H     -286.920     508.281    -309.365
  H     -284.528     515.382    -309.975
  H     -286.964     505.029    -308.773
  H     -282.517     509.194    -310.909
  H     -285.958     508.577    -311.930
  H     -285.585     510.329    -309.414
  H     -287.061     511.926    -310.529
  H     -285.751     511.575    -312.978
  H     -283.725     512.612    -312.066
  H     -282.790     504.068    -307.387
  H     -281.728     505.317    -308.050
  H     -285.160     513.480    -311.507
  P     -289.229     510.487    -311.449
  C     -290.392     508.912    -309.786
  O     -289.185     509.249    -310.429
  O     -289.953     509.840    -312.718
  O     -289.850     511.759    -310.950
  H     -289.485     509.058    -313.037
  H     -290.241     507.996    -309.203
  H     -291.183     508.731    -310.527
  H     -290.697     509.722    -309.107
  H     -283.276     511.909    -306.137
  H     -283.841     511.122    -307.591
  H     -284.955     512.037    -306.603

 3  4  5  6  7  8  9  10  11  12  22  25  29  30  31  32 0
 6-311+G(2d,p)
 ****
 33  36  37 0
 6-311+G(2d,p)
 ****
 1  2  13  14  15  16  17  18  19  20  21  23  24  26 0
 3-21G
 ****
 27  28  34  35  38  39  40  41  42  43  44  45  46  47  48 0
 3-21G
 ****


