%nproc=1
%NoSave
%Mem=1900MB
#P OB98/GEN NMR

erre ene a

0 1
  C      -83.859      -0.574    -157.801
  O      -84.649      -1.535    -158.480
  P      -84.620      -3.038    -157.907
  C      -83.187      -3.450    -160.051
  O      -83.458      -3.799    -158.703
  C      -81.695      -3.626    -160.339
  O      -80.913      -2.811    -159.444
  C      -81.190      -5.052    -160.168
  O      -81.477      -5.822    -161.321
  C      -79.701      -4.821    -159.937
  O      -79.013      -4.615    -161.186
  C      -79.704      -3.539    -159.092
  N      -76.736      -3.597    -155.002
  C      -76.405      -3.481    -156.339
  N      -75.095      -3.310    -156.619
  N      -77.277      -3.524    -157.309
  C      -78.547      -3.712    -156.881
  C      -78.998      -3.856    -155.589
  C      -78.029      -3.754    -154.523
  O      -78.283      -3.753    -153.322
  N      -80.353      -4.054    -155.550
  C      -80.723      -3.996    -156.813
  N      -79.669      -3.770    -157.659
  O      -85.969      -3.670    -158.483
  O      -84.521      -3.148    -156.418
  H      -79.207      -5.358    -161.785
  H      -86.674      -3.656    -157.808
  H      -76.023      -3.539    -154.297
  H      -81.739      -4.090    -157.163
  H      -78.855      -2.887    -159.330
  H      -79.221      -5.676    -159.454
  H      -74.364      -3.292    -155.926
  H      -81.634      -5.511    -159.276
  H      -74.832      -3.227    -157.594
  H      -81.507      -3.272    -161.361
  H      -83.465      -2.405    -160.215
  H      -83.786      -4.083    -160.713
  P      -82.612      -6.949    -161.194
  C      -80.603      -8.592    -161.224
  O      -81.891      -8.296    -160.720
  O      -83.011      -7.241    -162.717
  O      -83.801      -6.542    -160.390
  H      -83.967      -7.428    -162.775
  H      -80.059      -9.174    -160.478
  H      -80.037      -7.683    -161.448
  H      -80.702      -9.187    -162.135
  H      -83.966       0.378    -158.279
  H      -82.832      -0.873    -157.828
  H      -84.182      -0.501    -156.784

 3  4  5  6  7  8  9  10  11  12  23  26  30  31 0
 6-311+G(2d,p)
 ****
 33  35  36  37  38 0
 6-311+G(2d,p)
 ****
 1  2  13  14  15  16  17  18  19  20  21  22  24  25 0
 3-21G
 ****
 27  28  29  32  34  39  40  41  42  43  44  45  46  47  48  49 0
 3-21G
 ****


