%nproc=1
%NoSave
%Mem=1900MB
#P OB98/GEN NMR

erre ene a

0 1
  C     -428.542    -665.441    -684.801
  O     -429.577    -666.111    -685.494
  H     -427.655    -666.074    -684.805
  H     -428.838    -665.261    -683.763
  H     -428.302    -664.492    -685.289
  P     -430.964    -665.347    -685.747
  C     -430.050    -664.372    -687.950
  O     -430.630    -664.088    -686.683
  C     -430.096    -663.127    -688.833
  O     -431.472    -662.774    -689.122
  C     -429.474    -661.891    -688.198
  O     -428.063    -661.966    -688.229
  C     -430.087    -660.792    -689.058
  O     -429.402    -660.683    -690.314
  C     -431.519    -661.336    -689.278
  N     -432.494    -660.740    -688.357
  C     -433.688    -661.431    -688.194
  O     -433.949    -662.474    -688.781
  N     -434.605    -660.839    -687.367
  C     -434.481    -659.619    -686.767
  O     -435.408    -659.036    -686.217
  C     -433.170    -658.976    -686.916
  C     -432.257    -659.545    -687.699
  O     -431.766    -665.034    -684.529
  O     -431.757    -666.325    -686.736
  H     -432.416    -666.830    -686.230
  H     -429.416    -661.575    -690.720
  H     -435.493    -661.310    -687.278
  H     -433.008    -658.034    -686.404
  H     -431.288    -659.071    -687.844
  H     -431.854    -661.133    -690.298
  H     -430.042    -659.816    -688.579
  H     -429.842    -661.772    -687.166
  H     -429.605    -663.364    -689.788
  H     -430.619    -665.179    -688.422
  H     -429.017    -664.702    -687.809
  P     -427.163    -661.100    -687.226
  C     -427.411    -662.891    -685.403
  O     -427.558    -661.515    -685.726
  O     -427.163    -659.632    -687.482
  O     -425.694    -661.715    -687.391
  H     -425.066    -660.988    -687.594
  H     -427.701    -663.051    -684.386
  H     -426.389    -663.181    -685.533
  H     -428.032    -663.477    -686.047

 6  7  8  9  10  11  12  13  14  15  16  27  31  32  33  34  35 0
 6-311+G(2d,p)
 ****
 36  37 0
 6-311+G(2d,p)
 ****
 1  2  3  4  5  17  18  19  20  21  22  23  24  25 0
 3-21G
 ****
 26  28  29  30  38  39  40  41  42  43  44  45 0
 3-21G
 ****


