%nproc=1
%NoSave
%Mem=1900MB
#P OB98/GEN NMR

erre ene a

0 1
  C     -106.463    -173.844    -322.192
  O     -106.612    -173.059    -321.007
  P     -107.197    -173.595    -319.622
  C     -104.941    -174.625    -318.745
  O     -106.000    -173.694    -318.566
  C     -103.900    -174.507    -317.616
  O     -103.210    -173.225    -317.751
  C     -104.538    -174.528    -316.219
  O     -103.817    -175.313    -315.274
  C     -104.722    -173.053    -315.904
  O     -104.887    -172.790    -314.522
  C     -103.497    -172.431    -316.571
  N     -101.954    -167.606    -315.913
  C     -101.580    -168.745    -315.225
  N     -100.687    -168.587    -314.225
  N     -102.050    -169.936    -315.490
  C     -102.984    -169.945    -316.469
  C     -103.453    -168.879    -317.202
  C     -102.893    -167.577    -316.932
  O     -103.172    -166.531    -317.528
  N     -104.405    -169.279    -318.111
  C     -104.530    -170.579    -317.908
  N     -103.682    -171.030    -316.920
  O     -108.116    -174.770    -319.708
  O     -108.059    -172.347    -319.067
  H     -104.053    -173.028    -314.063
  H     -108.810    -172.731    -318.560
  H     -101.540    -166.716    -315.675
  H     -105.202    -171.236    -318.452
  H     -102.616    -172.464    -315.929
  H     -105.642    -172.721    -316.403
  H     -100.380    -167.688    -313.886
  H     -105.524    -175.018    -316.252
  H     -100.585    -169.376    -313.585
  H     -103.158    -175.308    -317.736
  H     -104.479    -174.375    -319.705
  H     -105.324    -175.643    -318.820
  P     -104.352    -176.484    -314.319
  C     -104.430    -178.727    -315.569
  O     -103.657    -177.860    -314.762
  O     -105.878    -176.702    -314.754
  O     -104.269    -176.178    -312.860
  H     -106.468    -176.508    -313.999
  H     -103.959    -179.714    -315.573
  H     -104.464    -178.346    -316.597
  H     -105.448    -178.817    -315.173
  H     -106.048    -173.239    -322.971
  H     -107.420    -174.213    -322.498
  H     -105.810    -174.668    -321.994

 3  4  5  6  7  8  9  10  11  12  23  26  30  31 0
 6-311+G(2d,p)
 ****
 33  35  36  37  38 0
 6-311+G(2d,p)
 ****
 1  2  13  14  15  16  17  18  19  20  21  22  24  25 0
 3-21G
 ****
 27  28  29  32  34  39  40  41  42  43  44  45  46  47  48  49 0
 3-21G
 ****


