%nproc=1
%NoSave
%Mem=1900MB
#P OB98/GEN NMR

erre ene a

0 1
  C      165.979     127.541     512.129
  O      166.978     126.544     511.897
  P      166.456     125.132     511.330
  C      167.979     124.826     509.248
  O      166.682     125.124     509.740
  C      167.900     123.991     507.973
  O      167.096     124.623     506.956
  C      169.254     123.729     507.332
  O      169.921     122.678     508.009
  C      168.859     123.372     505.905
  O      168.502     121.978     505.794
  C      167.634     124.259     505.656
  N      167.467     126.377     501.047
  C      167.259     125.060     501.430
  N      166.935     124.198     500.447
  N      167.352     124.640     502.661
  C      167.683     125.619     503.540
  C      167.894     126.957     503.284
  C      167.781     127.408     501.920
  O      167.936     128.562     501.534
  N      168.150     127.655     504.442
  C      168.227     126.712     505.367
  N      167.888     125.470     504.889
  O      164.860     125.236     511.496
  O      167.007     123.958     512.064
  H      167.760     121.793     506.405
  H      164.564     124.631     512.201
  H      167.384     126.642     500.083
  H      168.490     126.880     506.403
  H      166.842     123.724     505.119
  H      169.685     123.529     505.204
  H      166.835     124.450     499.477
  H      169.853     124.645     507.338
  H      166.759     123.229     500.709
  H      167.420     123.041     508.237
  H      168.548     124.280     510.011
  H      168.517     125.769     509.076
  P      171.201     123.044     508.894
  C      170.043     122.621     511.186
  O      170.676     123.546     510.314
  O      171.763     124.378     508.189
  O      172.250     121.982     508.939
  H      172.733     124.321     508.108
  H      170.222     122.922     512.221
  H      170.434     121.608     511.039
  H      168.971     122.631     510.990
  H      166.442     128.430     512.503
  H      165.273     127.178     512.847
  H      165.474     127.760     511.211

 3  4  5  6  7  8  9  10  11  12  23  26  30  31 0
 6-311+G(2d,p)
 ****
 33  35  36  37  38 0
 6-311+G(2d,p)
 ****
 1  2  13  14  15  16  17  18  19  20  21  22  24  25 0
 3-21G
 ****
 27  28  29  32  34  39  40  41  42  43  44  45  46  47  48  49 0
 3-21G
 ****


