%nproc=1
%NoSave
%Mem=1900MB
#P OB98/GEN NMR

erre ene a

0 1
  C      188.546     -55.217     406.677
  O      188.645     -55.293     408.086
  P      190.103     -55.612     408.708
  C      189.340     -57.970     409.503
  O      190.267     -57.214     408.726
  C      189.965     -59.286     409.964
  O      189.386     -59.651     411.245
  C      189.751     -60.479     409.007
  O      190.934     -61.284     409.084
  C      188.563     -61.181     409.636
  O      188.372     -62.517     409.202
  C      188.903     -61.006     411.116
  N      186.407     -64.430     414.009
  C      187.578     -64.506     413.324
  N      188.179     -63.551     412.583
  C      187.455     -62.411     412.599
  C      186.255     -62.193     413.234
  C      185.723     -63.274     413.966
  N      184.524     -63.192     414.664
  N      185.797     -60.906     413.005
  C      186.720     -60.361     412.237
  N      187.753     -61.232     411.988
  O      189.918     -55.239     410.251
  O      191.237     -54.862     408.071
  H      189.119     -63.075     409.499
  H      190.728     -54.812     410.608
  H      188.101     -65.461     413.373
  H      186.674     -59.361     411.833
  H      189.693     -61.685     411.440
  H      187.652     -60.630     409.390
  H      189.593     -60.176     407.970
  H      191.038     -59.123     410.124
  H      188.471     -58.206     408.872
  H      184.136     -64.070     414.980
  H      183.930     -62.403     414.456
  H      188.998     -57.374     410.346
  P      191.894     -61.380     407.802
  C      190.337     -63.191     406.839
  O      190.930     -61.932     406.636
  O      192.752     -62.688     408.150
  O      192.710     -60.169     407.500
  H      192.177     -63.440     408.402
  H      189.636     -63.400     406.037
  H      189.788     -63.206     407.796
  H      191.109     -63.978     406.857
  H      187.535     -55.002     406.402
  H      188.842     -56.152     406.248
  H      189.187     -54.440     406.316

 3  4  5  6  7  8  9  10  11  12  22  25  29  30  31  32 0
 6-311+G(2d,p)
 ****
 33  36  37 0
 6-311+G(2d,p)
 ****
 1  2  13  14  15  16  17  18  19  20  21  23  24  26 0
 3-21G
 ****
 27  28  34  35  38  39  40  41  42  43  44  45  46  47  48 0
 3-21G
 ****


