%nproc=1
%NoSave
%Mem=1900MB
#P OB98/GEN NMR

erre ene a

0 1
  C      380.713    -121.604     143.576
  O      382.017    -121.291     144.024
  H      380.752    -121.816     142.505
  H      380.053    -120.748     143.742
  H      380.323    -122.483     144.097
  P      382.252    -121.268     145.613
  C      381.325    -119.859     147.589
  O      381.408    -120.023     146.179
  C      380.215    -118.877     147.944
  O      379.023    -119.167     147.183
  C      379.800    -118.898     149.413
  O      380.664    -118.098     150.212
  C      378.412    -118.280     149.324
  O      378.528    -116.849     149.165
  C      377.868    -118.909     148.033
  N      374.001    -121.767     146.410
  C      374.409    -120.509     146.002
  N      373.675    -119.932     145.023
  N      375.439    -119.877     146.502
  C      376.062    -120.568     147.488
  C      375.749    -121.816     147.985
  C      374.619    -122.511     147.411
  O      374.225    -123.630     147.733
  N      376.609    -122.189     148.985
  C      377.426    -121.161     149.109
  N      377.136    -120.151     148.223
  O      383.774    -120.784     145.737
  O      382.037    -122.572     146.306
  H      378.853    -116.495     150.012
  H      384.337    -121.559     145.931
  H      373.197    -122.207     145.998
  H      378.249    -121.101     149.811
  H      377.207    -118.228     147.489
  H      377.817    -118.453     150.222
  H      372.859    -120.354     144.610
  H      379.725    -119.925     149.799
  H      373.960    -119.010     144.705
  H      380.550    -117.871     147.651
  H      382.281    -119.478     147.960
  H      381.126    -120.834     148.049
  P      380.982    -118.588     151.706
  C      379.620    -118.908     153.892
  O      379.590    -118.578     152.510
  O      381.776    -117.337     152.321
  O      381.779    -119.843     151.811
  H      382.713    -117.580     152.473
  H      378.629    -118.860     154.292
  H      380.248    -118.214     154.411
  H      380.006    -119.898     154.014

 6  7  8  9  10  11  12  13  14  15  26  29  33  34 0
 6-311+G(2d,p)
 ****
 36  38  39  40  41 0
 6-311+G(2d,p)
 ****
 1  2  3  4  5  16  17  18  19  20  21  22  23  24  25 0
 3-21G
 ****
 27  28  30  31  32  35  37  42  43  44  45  46  47 0
 3-21G
 ****
 48  49 0
 3-21G
 ****


