%nproc=1
%NoSave
%Mem=1900MB
#P OB98/GEN NMR

erre ene a

0 1
  C      -59.952    -139.330      62.616
  O      -59.769    -137.992      62.187
  P      -60.822    -136.895      62.709
  C      -62.525    -137.442      60.824
  O      -61.694    -136.461      61.433
  C      -62.611    -137.236      59.311
  O      -63.421    -138.291      58.739
  C      -63.217    -135.894      58.896
  O      -62.526    -135.444      57.731
  C      -64.641    -136.253      58.517
  O      -65.199    -135.306      57.607
  C      -64.452    -137.667      57.947
  N      -65.689    -138.442      57.973
  C      -66.510    -138.360      56.844
  O      -66.216    -137.598      55.923
  N      -67.665    -139.100      56.810
  C      -68.024    -139.778      57.857
  N      -69.175    -140.497      57.773
  C      -67.249    -139.791      59.112
  C      -66.095    -139.127      59.093
  O      -59.902    -135.617      62.981
  O      -61.597    -137.305      63.919
  H      -65.560    -134.556      58.132
  H      -60.252    -135.087      63.722
  H      -67.611    -140.343      59.968
  H      -65.449    -139.102      59.961
  H      -64.094    -137.621      56.910
  H      -65.270    -136.282      59.415
  H      -63.150    -135.137      59.682
  H      -61.601    -137.341      58.894
  H      -69.696    -140.459      56.906
  H      -63.533    -137.360      61.238
  H      -69.533    -141.053      58.537
  H      -62.140    -138.439      61.058
  P      -61.689    -134.080      57.843
  C      -63.348    -132.421      56.800
  O      -62.179    -133.190      56.602
  O      -60.239    -134.555      57.343
  O      -61.608    -133.406      59.171
  H      -59.607    -133.818      57.424
  H      -63.488    -131.766      55.936
  H      -63.253    -131.805      57.698
  H      -64.217    -133.080      56.886
  H      -59.186    -139.947      62.196
  H      -60.910    -139.681      62.292
  H      -59.899    -139.373      63.684

 3  4  5  6  7  8  9  10  11  12  13  21  23  27  28  29  30  32 0
 6-311+G(2d,p)
 ****
 34  35 0
 6-311+G(2d,p)
 ****
 1  2  14  15  16  17  18  19  20  22  24  25  26 0
 3-21G
 ****
 31  33  36  37  38  39  40  41  42  43  44  45  46 0
 3-21G
 ****


