%nproc=1
%NoSave
%Mem=1900MB
#P OB98/GEN NMR

erre ene a

0 1
  C      -21.561     -84.751     232.770
  O      -20.724     -84.671     231.628
  P      -19.137     -84.712     231.860
  C      -19.013     -87.109     230.782
  O      -18.567     -85.763     230.793
  C      -18.784     -87.730     229.403
  O      -19.678     -87.132     228.440
  C      -17.384     -87.523     228.839
  O      -16.439     -88.395     229.438
  C      -17.624     -87.768     227.354
  O      -17.661     -89.180     227.081
  C      -19.022     -87.151     227.154
  N      -18.983     -85.816     226.561
  C      -18.802     -85.761     225.182
  O      -18.682     -86.762     224.478
  N      -18.746     -84.506     224.638
  C      -18.787     -83.328     225.327
  O      -18.688     -82.232     224.793
  C      -18.945     -83.451     226.784
  C      -19.035     -84.668     227.324
  O      -19.065     -85.476     233.263
  O      -18.506     -83.361     231.841
  H      -19.833     -86.060     233.396
  H      -17.827     -89.271     226.123
  H      -18.638     -84.440     223.637
  H      -18.973     -82.539     227.366
  H      -19.142     -84.777     228.397
  H      -19.633     -87.796     226.510
  H      -16.842     -87.333     226.723
  H      -17.072     -86.483     228.992
  H      -19.018     -88.801     229.466
  H      -20.080     -87.132     231.022
  H      -18.470     -87.670     231.550
  P      -14.887     -88.076     229.158
  C      -14.207     -86.942     231.412
  O      -14.164     -88.084     230.586
  O      -14.956     -86.527     228.758
  O      -14.273     -88.957     228.120
  H      -15.559     -86.018     229.323
  H      -13.989     -87.244     232.440
  H      -15.191     -86.466     231.385
  H      -13.447     -86.226     231.086
  H      -22.586     -84.712     232.465
  H      -21.352     -83.930     233.424
  H      -21.377     -85.671     233.284

 3  4  5  6  7  8  9  10  11  12  13  24  28  29  30  31  32 0
 6-311+G(2d,p)
 ****
 33  34 0
 6-311+G(2d,p)
 ****
 1  2  14  15  16  17  18  19  20  21  22  23  25  26  27 0
 3-21G
 ****
 35  36  37  38  39  40  41  42  43  44  45 0
 3-21G
 ****


