%nproc=1
%NoSave
%Mem=1900MB
#P OB98/GEN NMR

erre ene a

0 1
  C      531.854    -349.405      33.933
  O      531.000    -348.287      34.019
  H      531.522    -350.037      33.108
  H      531.802    -349.984      34.860
  H      532.888    -349.100      33.750
  P      531.457    -347.032      34.898
  C      531.398    -345.571      32.767
  O      532.149    -345.982      33.901
  C      531.876    -344.214      32.249
  O      531.945    -343.272      33.345
  C      533.293    -344.331      31.674
  O      533.535    -343.375      30.646
  C      534.172    -344.009      32.873
  O      535.477    -343.576      32.504
  C      533.335    -342.940      33.571
  N      536.139    -340.853      37.276
  C      536.296    -340.778      35.904
  N      537.365    -340.062      35.465
  N      535.502    -341.353      35.047
  C      534.528    -342.089      35.628
  C      534.277    -342.268      36.973
  C      535.145    -341.587      37.915
  O      535.062    -341.640      39.137
  N      533.211    -343.105      37.181
  C      532.818    -343.443      35.971
  N      533.579    -342.844      34.993
  O      532.702    -347.587      35.736
  O      530.407    -346.452      35.798
  H      535.915    -343.240      33.312
  H      532.817    -347.075      36.556
  H      536.774    -340.373      37.893
  H      531.992    -344.106      35.744
  H      533.517    -341.953      33.134
  H      534.286    -344.922      33.468
  H      538.094    -339.754      36.088
  H      533.496    -345.331      31.282
  H      537.661    -340.238      34.504
  H      531.160    -343.811      31.525
  H      530.353    -345.501      33.086
  H      531.452    -346.329      31.983
  P      532.857    -343.630      29.216
  C      530.631    -342.468      29.963
  O      531.271    -343.603      29.418
  O      533.188    -345.169      28.911
  O      533.358    -342.726      28.142
  H      533.893    -345.232      28.236
  H      529.577    -342.644      30.017
  H      530.819    -341.619      29.340
  H      531.012    -342.281      30.945

 6  7  8  9  10  11  12  13  14  15  26  29  33  34 0
 6-311+G(2d,p)
 ****
 36  38  39  40  41 0
 6-311+G(2d,p)
 ****
 1  2  3  4  5  16  17  18  19  20  21  22  23  24  25 0
 3-21G
 ****
 27  28  30  31  32  35  37  42  43  44  45  46  47 0
 3-21G
 ****
 48  49 0
 3-21G
 ****


