%nproc=1
%NoSave
%Mem=1900MB
#P OB98/GEN NMR

erre ene a

0 1
  C      -72.410      61.343     -37.763
  O      -71.957      60.418     -38.726
  H      -71.814      62.256     -37.849
  H      -72.273      60.926     -36.761
  H      -73.463      61.595     -37.915
  P      -72.907      59.194     -39.126
  C      -71.899      57.903     -37.131
  O      -73.086      58.268     -37.826
  C      -72.170      56.863     -36.043
  O      -72.862      57.473     -34.931
  C      -73.075      55.731     -36.534
  O      -72.416      54.683     -37.220
  C      -73.685      55.232     -35.227
  O      -72.822      54.273     -34.592
  C      -73.780      56.508     -34.387
  N      -78.159      57.018     -31.802
  C      -77.038      56.278     -31.478
  N      -77.119      55.534     -30.353
  N      -75.952      56.258     -32.205
  C      -76.051      56.973     -33.351
  C      -77.112      57.735     -33.785
  C      -78.292      57.795     -32.945
  O      -79.313      58.429     -33.191
  N      -76.847      58.324     -34.999
  C      -75.659      57.858     -35.330
  N      -75.124      57.055     -34.349
  O      -71.978      58.288     -40.069
  O      -74.179      59.571     -39.824
  H      -72.744      53.496     -35.176
  H      -72.531      57.772     -40.683
  H      -78.957      57.018     -31.192
  H      -75.132      58.090     -36.250
  H      -73.475      56.328     -33.348
  H      -74.644      54.731     -35.394
  H      -77.973      55.426     -29.827
  H      -73.881      56.131     -37.159
  H      -76.436      54.784     -30.225
  H      -71.215      56.483     -35.661
  H      -71.503      58.817     -36.683
  H      -71.146      57.534     -37.834
  P      -72.825      54.329     -38.727
  C      -74.150      52.283     -37.813
  O      -74.142      53.418     -38.653
  O      -71.677      53.307     -39.175
  O      -72.916      55.500     -39.645
  H      -70.980      53.779     -39.667
  H      -75.099      51.794     -37.884
  H      -73.980      52.587     -36.801
  H      -73.377      51.608     -38.117

 6  7  8  9  10  11  12  13  14  15  26  29  33  34 0
 6-311+G(2d,p)
 ****
 36  38  39  40  41 0
 6-311+G(2d,p)
 ****
 1  2  3  4  5  16  17  18  19  20  21  22  23  24  25 0
 3-21G
 ****
 27  28  30  31  32  35  37  42  43  44  45  46  47 0
 3-21G
 ****
 48  49 0
 3-21G
 ****


