%nproc=1
%NoSave
%Mem=1900MB
#P OB98/GEN NMR

erre ene a

0 1
  C     -465.224     304.975    -123.415
  O     -465.177     306.384    -123.281
  H     -466.143     304.612    -122.956
  H     -464.369     304.524    -122.901
  H     -465.216     304.694    -124.474
  P     -463.986     307.145    -124.049
  C     -465.200     309.213    -125.119
  O     -464.683     307.904    -125.279
  C     -466.704     309.241    -125.393
  O     -467.373     308.438    -124.382
  C     -467.316     310.645    -125.352
  O     -468.355     310.709    -126.331
  C     -467.927     310.721    -123.962
  O     -468.969     311.693    -123.890
  C     -468.376     309.269    -123.748
  N     -468.532     308.938    -122.331
  C     -469.827     309.011    -121.814
  O     -470.765     309.354    -122.535
  N     -470.028     308.738    -120.486
  C     -469.009     308.478    -119.723
  N     -469.262     308.236    -118.405
  C     -467.616     308.432    -120.217
  C     -467.456     308.664    -121.522
  O     -463.215     305.925    -124.744
  O     -463.133     307.996    -123.172
  H     -469.673     311.438    -124.525
  H     -463.810     305.278    -125.158
  H     -466.799     308.220    -119.542
  H     -466.472     308.636    -121.974
  H     -469.324     309.079    -124.260
  H     -467.156     310.995    -123.229
  H     -466.585     311.428    -125.541
  H     -466.892     308.756    -126.356
  H     -470.232     308.299    -118.107
  H     -464.695     309.908    -125.806
  H     -468.553     308.080    -117.717
  H     -464.989     309.541    -124.095
  P     -467.971     310.830    -127.879
  C     -468.883     308.648    -128.931
  O     -467.736     309.362    -128.485
  O     -466.918     311.831    -128.212
  O     -469.371     311.256    -128.556
  H     -469.181     311.926    -129.233
  H     -468.584     307.692    -129.308
  H     -469.368     309.202    -129.707
  H     -469.559     308.513    -128.113

 6  7  8  9  10  11  12  13  14  15  16  26  30  31  32  33  35 0
 6-311+G(2d,p)
 ****
 37  38 0
 6-311+G(2d,p)
 ****
 1  2  3  4  5  17  18  19  20  21  22  23  24  25 0
 3-21G
 ****
 27  28  29  34  36  39  40  41  42  43  44  45  46 0
 3-21G
 ****


