%nproc=1
%NoSave
%Mem=1900MB
#P OB98/GEN NMR

erre ene a

0 1
  C     -241.084     178.639      -7.302
  O     -240.093     178.348      -6.314
  P     -240.000     176.829      -5.805
  C     -237.456     176.394      -6.101
  O     -238.776     176.124      -6.561
  C     -236.692     175.080      -5.906
  O     -236.593     174.335      -7.139
  C     -235.256     175.285      -5.441
  O     -235.209     175.638      -4.070
  C     -234.656     173.920      -5.764
  O     -235.004     172.961      -4.753
  C     -235.367     173.561      -7.082
  N     -234.785     172.588     -12.075
  C     -235.683     172.147     -11.164
  N     -235.768     172.452      -9.854
  C     -234.805     173.317      -9.503
  C     -233.823     173.859     -10.319
  C     -233.831     173.455     -11.665
  N     -232.908     173.898     -12.586
  N     -233.006     174.710      -9.601
  C     -233.474     174.664      -8.367
  N     -234.566     173.846      -8.261
  O     -241.293     176.144      -6.453
  O     -239.990     176.694      -4.318
  H     -234.520     173.207      -3.937
  H     -241.954     175.957      -5.760
  H     -236.432     171.456     -11.542
  H     -233.058     175.202      -7.525
  H     -235.645     172.504      -7.128
  H     -233.564     173.938      -5.836
  H     -234.764     176.064      -6.042
  H     -237.239     174.473      -5.174
  H     -237.488     176.945      -5.159
  H     -232.936     173.502     -13.513
  H     -232.138     174.475     -12.273
  H     -236.953     177.035      -6.830
  P     -234.890     177.163      -3.702
  C     -237.317     177.866      -3.228
  O     -236.230     177.945      -4.129
  O     -233.867     177.568      -4.860
  O     -234.427     177.394      -2.306
  H     -234.169     177.264      -5.733
  H     -238.144     178.463      -3.621
  H     -237.029     178.257      -2.250
  H     -237.646     176.825      -3.132
  H     -241.042     179.678      -7.554
  H     -242.053     178.405      -6.915
  H     -240.898     178.052      -8.177

 3  4  5  6  7  8  9  10  11  12  22  25  29  30  31  32 0
 6-311+G(2d,p)
 ****
 33  36  37 0
 6-311+G(2d,p)
 ****
 1  2  13  14  15  16  17  18  19  20  21  23  24  26 0
 3-21G
 ****
 27  28  34  35  38  39  40  41  42  43  44  45  46  47  48 0
 3-21G
 ****


