%nproc=1
%NoSave
%Mem=1900MB
#P OB98/GEN NMR

erre ene a

0 1
  C      107.541     412.051     223.877
  O      108.341     410.892     223.711
  P      109.151     410.738     222.335
  C      111.325     411.775     223.313
  O      110.294     411.866     222.338
  C      112.699     411.999     222.675
  O      113.700     412.038     223.730
  C      113.125     410.911     221.678
  O      113.886     411.562     220.655
  C      114.009     410.019     222.534
  O      114.846     409.147     221.796
  C      114.717     411.073     223.381
  N      119.123     409.545     225.479
  C      118.845     410.120     224.286
  N      117.650     410.506     223.801
  C      116.673     410.257     224.688
  C      116.801     409.661     225.935
  C      118.097     409.298     226.325
  N      118.376     408.700     227.542
  N      115.569     409.542     226.550
  C      114.716     410.063     225.692
  N      115.335     410.522     224.563
  O      108.112     411.271     221.242
  O      109.625     409.349     222.028
  H      114.308     408.465     221.354
  H      108.161     410.740     220.423
  H      119.702     410.294     223.637
  H      113.643     410.107     225.831
  H      115.494     411.600     222.812
  H      113.369     409.390     223.166
  H      112.283     410.387     221.215
  H      112.698     412.981     222.186
  H      111.312     410.779     223.761
  H      119.297     408.298     227.643
  H      117.590     408.332     228.067
  H      111.138     412.508     224.107
  P      114.167     410.788     219.279
  C      112.270     412.001     218.043
  O      112.734     410.767     218.553
  O      114.287     409.271     219.802
  O      115.333     411.262     218.484
  H      113.527     409.029     220.369
  H      111.340     411.823     217.493
  H      113.004     412.439     217.365
  H      112.063     412.687     218.870
  H      107.063     412.020     224.834
  H      106.798     412.085     223.108
  H      108.159     412.923     223.815

 3  4  5  6  7  8  9  10  11  12  22  25  29  30  31  32 0
 6-311+G(2d,p)
 ****
 33  36  37 0
 6-311+G(2d,p)
 ****
 1  2  13  14  15  16  17  18  19  20  21  23  24  26 0
 3-21G
 ****
 27  28  34  35  38  39  40  41  42  43  44  45  46  47  48 0
 3-21G
 ****


