%nproc=1
%NoSave
%Mem=1900MB
#P OB98/GEN NMR

erre ene a

0 1
  C      -63.472     -58.979      80.559
  O      -64.570     -58.899      81.448
  H      -62.862     -58.079      80.672
  H      -63.832     -59.035      79.529
  H      -62.857     -59.854      80.787
  P      -65.456     -60.224      81.605
  C      -67.428     -59.955      79.897
  O      -66.973     -59.831      81.237
  C      -68.923     -59.658      79.822
  O      -69.403     -59.784      78.469
  C      -69.792     -60.628      80.604
  O      -69.699     -60.439      81.999
  C      -71.165     -60.297      80.037
  O      -71.756     -59.174      80.702
  C      -70.838     -59.951      78.564
  N      -71.340     -60.960      77.650
  C      -72.569     -60.663      77.046
  O      -73.135     -59.597      77.289
  N      -73.135     -61.595      76.216
  C      -72.545     -62.733      76.028
  N      -73.176     -63.626      75.219
  C      -71.251     -63.087      76.646
  C      -70.709     -62.163      77.439
  O      -65.505     -60.420      83.191
  O      -64.947     -61.409      80.858
  H      -71.112     -58.440      80.626
  H      -65.744     -59.615      83.678
  H      -70.793     -64.044      76.446
  H      -69.761     -62.339      77.934
  H      -71.283     -58.987      78.288
  H      -71.859     -61.134      80.148
  H      -69.548     -61.662      80.325
  H      -69.082     -58.623      80.153
  H      -74.087     -63.365      74.861
  H      -67.220     -60.958      79.511
  H      -72.852     -64.569      75.063
  H      -66.866     -59.241      79.287
  P      -68.972     -61.513      82.938
  C      -71.024     -62.992      83.425
  O      -70.086     -62.064      83.958
  O      -67.718     -61.043      83.594
  O      -68.767     -62.767      81.963
  H      -69.587     -63.135      81.592
  H      -71.710     -63.285      84.192
  H      -70.505     -63.854      83.061
  H      -71.562     -62.534      82.621

 6  7  8  9  10  11  12  13  14  15  16  26  30  31  32  33  35 0
 6-311+G(2d,p)
 ****
 37  38 0
 6-311+G(2d,p)
 ****
 1  2  3  4  5  17  18  19  20  21  22  23  24  25 0
 3-21G
 ****
 27  28  29  34  36  39  40  41  42  43  44  45  46 0
 3-21G
 ****


