%nproc=1
%NoSave
%Mem=1900MB
#P OB98/GEN NMR

erre ene a

0 1
  C       -2.380     -72.438     -52.407
  O       -3.069     -73.515     -51.804
  H       -3.086     -71.647     -52.669
  H       -1.654     -72.042     -51.693
  H       -1.848     -72.775     -53.301
  P       -4.062     -74.354     -52.743
  C       -6.315     -73.170     -52.212
  O       -5.249     -73.344     -53.135
  C       -7.353     -72.198     -52.775
  O       -7.821     -72.702     -54.053
  C       -8.575     -72.020     -51.869
  O       -8.984     -70.651     -51.908
  C       -9.631     -72.893     -52.525
  O      -10.953     -72.468     -52.214
  C       -9.259     -72.763     -53.998
  N      -13.406     -74.828     -56.144
  C      -13.206     -73.650     -55.517
  N      -12.064     -73.172     -54.977
  C      -11.049     -74.030     -55.181
  C      -11.100     -75.266     -55.801
  C      -12.354     -75.669     -56.292
  N      -12.574     -76.882     -56.900
  N       -9.856     -75.868     -55.784
  C       -9.072     -75.008     -55.164
  N       -9.749     -73.885     -54.778
  O       -4.752     -75.358     -51.699
  O       -3.424     -75.079     -53.878
  H      -11.579     -72.991     -52.755
  H       -4.148     -76.102     -51.519
  H      -14.078     -73.009     -55.429
  H       -8.019     -75.152     -54.962
  H       -9.663     -71.850     -54.454
  H       -9.517     -73.929     -52.184
  H       -8.383     -72.312     -50.836
  H       -6.863     -71.238     -52.973
  H       -5.911     -72.773     -51.275
  H      -13.517     -77.113     -57.171
  H      -11.817     -77.547     -56.963
  H       -6.784     -74.140     -52.017
  P       -8.739     -69.786     -50.579
  C      -10.954     -70.643     -49.541
  O       -9.556     -70.458     -49.373
  O       -9.536     -68.428     -50.868
  O       -7.295     -69.520     -50.297
  H       -8.965     -67.660     -50.683
  H      -11.362     -71.098     -48.663
  H      -11.131     -71.276     -50.385
  H      -11.423     -69.695     -49.702

 6  7  8  9  10  11  12  13  14  15  25  28  32  33  34  35 0
 6-311+G(2d,p)
 ****
 36  39  40 0
 6-311+G(2d,p)
 ****
 1  2  3  4  5  16  17  18  19  20  21  22  23  24 0
 3-21G
 ****
 26  27  29  30  31  37  38  41  42  43  44  45  46  47 0
 3-21G
 ****
 48 0
 3-21G
 ****


