%nproc=1
%NoSave
%Mem=1900MB
#P OB98/GEN NMR

erre ene a

0 1
  C      319.630     -57.818    -268.004
  O      319.869     -56.430    -268.115
  H      318.587     -58.019    -268.268
  H      319.804     -58.149    -266.977
  H      320.279     -58.371    -268.689
  P      321.360     -55.926    -267.812
  C      320.526     -54.979    -265.536
  O      321.475     -55.795    -266.214
  C      321.194     -54.292    -264.347
  O      320.223     -53.473    -263.655
  C      321.738     -55.256    -263.293
  O      322.986     -55.807    -263.677
  C      321.825     -54.343    -262.077
  O      323.031     -53.572    -262.080
  C      320.613     -53.417    -262.266
  N      319.187     -54.305    -257.450
  C      320.353     -53.874    -257.982
  N      320.647     -53.647    -259.281
  C      319.577     -53.897    -260.058
  C      318.329     -54.345    -259.659
  C      318.145     -54.552    -258.280
  N      316.971     -55.020    -257.740
  N      317.508     -54.528    -260.757
  C      318.244     -54.192    -261.795
  N      319.497     -53.795    -261.420
  O      321.337     -54.406    -268.317
  O      322.445     -56.718    -268.464
  H      322.944     -52.914    -261.359
  H      321.673     -54.360    -269.231
  H      321.158     -53.698    -257.272
  H      317.919     -54.225    -262.830
  H      320.851     -52.372    -262.039
  H      321.809     -54.916    -261.146
  H      321.009     -56.048    -263.090
  H      321.987     -53.636    -264.722
  H      319.701     -55.605    -265.173
  H      320.132     -54.237    -266.236
  H      316.918     -55.166    -256.746
  H      316.224     -55.309    -258.361
  P      323.275     -57.349    -263.343
  C      323.835     -56.809    -260.860
  O      323.039     -57.554    -261.766
  O      324.860     -57.468    -263.509
  O      322.544     -58.324    -264.210
  H      325.079     -57.867    -264.378
  H      323.559     -57.056    -259.856
  H      323.680     -55.763    -261.025
  H      324.867     -57.045    -261.014

 6  7  8  9  10  11  12  13  14  15  25  28  32  33  34  35 0
 6-311+G(2d,p)
 ****
 36  37  40 0
 6-311+G(2d,p)
 ****
 1  2  3  4  5  16  17  18  19  20  21  22  23  24 0
 3-21G
 ****
 26  27  29  30  31  38  39 41  42  43  44  45  46  47  48 0
 3-21G
 ****


