%nproc=1
%NoSave
%Mem=1900MB
#P OB98/GEN NMR

erre ene a

0 1
  C     -173.201    -332.145     262.093
  O     -172.739    -333.441     262.413
  H     -173.081    -331.475     262.949
  H     -172.616    -331.758     261.255
  H     -174.255    -332.185     261.799
  P     -173.407    -334.141     263.694
  C     -173.284    -336.589     262.854
  O     -172.796    -335.623     263.774
  C     -172.125    -337.353     262.228
  O     -171.410    -336.508     261.303
  C     -171.074    -337.844     263.216
  O     -171.489    -339.022     263.895
  C     -169.910    -338.119     262.276
  O     -170.094    -339.399     261.639
  C     -170.043    -336.993     261.242
  N     -165.582    -334.817     259.915
  C     -166.198    -335.943     259.484
  N     -167.375    -336.466     259.890
  C     -167.943    -335.691     260.830
  C     -167.439    -334.515     261.361
  C     -166.192    -334.080     260.874
  N     -165.565    -332.939     261.327
  N     -168.298    -333.990     262.296
  C     -169.312    -334.831     262.333
  N     -169.142    -335.878     261.467
  O     -174.922    -334.388     263.237
  O     -173.339    -333.353     264.960
  H     -170.248    -340.046     262.356
  H     -175.511    -334.268     264.008
  H     -165.675    -336.503     258.712
  H     -170.194    -334.715     262.958
  H     -169.883    -337.364     260.221
  H     -168.942    -338.143     262.786
  H     -170.792    -337.054     263.921
  H     -172.542    -338.194     261.658
  H     -173.851    -336.084     262.061
  H     -164.786    -332.580     260.804
  H     -166.035    -332.392     262.039
  H     -173.951    -337.280     263.383
  P     -171.444    -339.003     265.501
  C     -173.275    -340.848     265.517
  O     -171.982    -340.446     265.957
  O     -172.649    -338.022     265.890
  O     -170.155    -338.562     266.094
  H     -172.485    -337.626     266.767
  H     -173.494    -341.824     265.897
  H     -173.297    -340.869     264.447
  H     -174.006    -340.153     265.876

 6  7  8  9  10  11  12  13  14  15  25  28  32  33  34  35 0
 6-311+G(2d,p)
 ****
 36  39  40 0
 6-311+G(2d,p)
 ****
 1  2  3  4  5  16  17  18  19  20  21  22  23  24 0
 3-21G
 ****
 26  27  29  30  31  37  38  41  42  43  44  45  46  47  48 0
 3-21G
 ****


