%nproc=1
%NoSave
%Mem=1900MB
#P OB98/GEN NMR

erre ene a

0 1
  C       97.209    -174.620      33.403
  O       98.474    -174.531      34.051
  P       99.704    -173.871      33.260
  C      101.237    -175.945      33.224
  O      100.461    -175.035      32.451
  C      102.132    -176.796      32.320
  O      101.365    -177.566      31.379
  C      103.090    -175.969      31.479
  O      104.156    -175.460      32.266
  C      103.494    -176.981      30.414
  O      104.538    -177.842      30.892
  C      102.188    -177.786      30.217
  N      101.477    -177.439      28.996
  C      102.020    -177.942      27.807
  O      103.060    -178.608      27.829
  N      101.377    -177.672      26.623
  C      100.293    -176.953      26.623
  N       99.695    -176.723      25.424
  C       99.700    -176.389      27.855
  C      100.340    -176.660      28.987
  O      100.584    -172.976      34.063
  O       98.966    -173.052      32.088
  H      104.647    -178.536      30.212
  H       99.513    -172.277      31.854
  H       98.791    -175.802      27.804
  H       99.975    -176.287      29.938
  H      102.405    -178.860      30.187
  H      103.873    -176.487      29.507
  H      102.548    -175.139      31.011
  H      102.704    -177.484      32.964
  H      100.130    -177.102      24.595
  H      100.567    -176.591      33.804
  H       98.828    -176.213      25.329
  H      101.831    -175.373      33.949
  P      104.300    -173.869      32.374
  C      106.385    -173.711      30.829
  O      105.027    -173.352      31.049
  O      105.431    -173.692      33.505
  O      103.050    -173.143      32.745
  H      105.247    -172.886      34.020
  H      106.626    -173.560      29.779
  H      106.570    -174.754      31.088
  H      107.028    -173.060      31.434
  H       96.503    -175.081      34.061
  H       97.304    -175.207      32.514
  H       96.869    -173.638      33.147

 3  4  5  6  7  8  9  10  11  12  13  23  27  28  29  30  32 0
 6-311+G(2d,p)
 ****
 34  35 0
 6-311+G(2d,p)
 ****
 1  2  14  15  16  17  18  19  20  21  22  24  25  26 0
 3-21G
 ****
 31  33  36  37  38  39  40  41  42  43  44  45  46 0
 3-21G
 ****


