%nproc=1
%NoSave
%Mem=1900MB
#P OB98/GEN NMR

erre ene a

0 1
  C     -433.527     -25.797    -932.724
  O     -433.745     -26.463    -931.491
  H     -433.191     -24.777    -932.519
  H     -434.457     -25.738    -933.301
  H     -432.760     -26.316    -933.303
  P     -434.400     -27.928    -931.522
  C     -432.502     -29.137    -930.238
  O     -433.850     -28.671    -930.218
  C     -431.835     -28.881    -928.891
  O     -431.501     -27.483    -928.756
  C     -432.734     -29.208    -927.704
  O     -432.806     -30.610    -927.505
  C     -432.046     -28.428    -926.599
  O     -430.901     -29.122    -926.094
  C     -431.631     -27.136    -927.351
  N     -432.572     -26.042    -927.153
  C     -432.380     -25.254    -926.015
  O     -431.443     -25.508    -925.239
  N     -433.248     -24.226    -925.776
  C     -434.216     -23.979    -926.598
  N     -435.042     -22.949    -926.299
  C     -434.459     -24.774    -927.822
  C     -433.599     -25.780    -928.041
  O     -434.243     -28.707    -932.795
  O     -435.938     -27.653    -931.169
  H     -430.345     -29.327    -926.861
  H     -436.457     -27.493    -931.984
  H     -435.265     -24.540    -928.488
  H     -433.701     -26.419    -928.919
  H     -430.634     -26.808    -927.017
  H     -432.720     -28.245    -925.765
  H     -433.726     -28.791    -927.852
  H     -430.897     -29.459    -928.853
  H     -434.851     -22.436    -925.443
  H     -431.990     -28.592    -931.033
  H     -435.775     -22.611    -926.911
  H     -432.467     -30.207    -930.480
  P     -433.904     -31.230    -926.507
  C     -434.081     -33.308    -928.040
  O     -433.805     -32.830    -926.720
  O     -435.270     -30.649    -926.616
  O     -433.233     -31.036    -925.060
  H     -433.288     -30.085    -924.779
  H     -433.986     -34.374    -928.061
  H     -433.387     -32.874    -928.729
  H     -435.077     -33.034    -928.318

 6  7  8  9  10  11  12  13  14  15  16  26  30  31  32  33  35 0
 6-311+G(2d,p)
 ****
 37  38 0
 6-311+G(2d,p)
 ****
 1  2  3  4  5  17  18  19  20  21  22  23  24  25 0
 3-21G
 ****
 27  28  29  34  36  39  40  41  42  43  44  45  46 0
 3-21G
 ****


