%nproc=1
%NoSave
%Mem=1900MB
#P OB98/GEN NMR

erre ene a

0 1
  C      760.092    -113.924     283.487
  O      761.022    -114.910     283.907
  P      761.031    -115.309     285.453
  C      762.387    -117.409     284.720
  O      762.219    -116.374     285.665
  C      762.547    -118.749     285.441
  O      761.466    -118.928     286.386
  C      762.497    -119.958     284.515
  O      763.724    -120.155     283.845
  C      762.156    -121.087     285.500
  O      763.336    -121.566     286.159
  C      761.219    -120.359     286.496
  N      759.802    -120.688     286.267
  C      759.356    -121.844     286.891
  O      760.086    -122.582     287.572
  N      758.038    -122.159     286.682
  C      757.165    -121.464     285.893
  O      756.009    -121.835     285.698
  C      757.714    -120.258     285.237
  C      758.993    -119.945     285.461
  O      759.693    -116.193     285.643
  O      761.055    -114.148     286.404
  H      763.791    -122.160     285.517
  H      759.300    -116.010     286.509
  H      757.676    -122.980     287.156
  H      757.047    -119.695     284.602
  H      759.422    -119.070     284.975
  H      761.484    -120.638     287.519
  H      761.698    -121.939     284.991
  H      761.670    -119.841     283.795
  H      763.482    -118.737     286.008
  H      763.272    -117.206     284.120
  H      761.519    -117.433     284.044
  P      763.691    -120.284     282.254
  C      766.220    -119.620     282.177
  O      765.208    -120.538     281.807
  O      763.382    -118.753     281.842
  O      762.674    -121.267     281.764
  H      763.784    -118.125     282.459
  H      766.040    -119.195     283.161
  H      766.261    -118.821     281.425
  H      767.180    -120.145     282.186
  H      760.198    -113.759     282.435
  H      760.279    -113.011     284.012
  H      759.098    -114.259     283.697

 3  4  5  6  7  8  9  10  11  12  13  23  28  29  30  31  32 0
 6-311+G(2d,p)
 ****
 33  34 0
 6-311+G(2d,p)
 ****
 1  2  14  15  16  17  18  19  20  21  22  24  25  26 0
 3-21G
 ****
 27  35  36  37  38  39  40  41  42  43  44  45 0
 3-21G
 ****


