%nproc=1
%NoSave
%Mem=1900MB
#P OB98/GEN NMR

erre ene a

0 1
  C      121.147     470.742     513.665
  O      121.838     469.880     512.786
  H      120.071     470.583     513.546
  H      121.373     471.782     513.418
  H      121.415     470.544     514.706
  P      123.419     469.698     512.960
  C      123.857     471.347     511.027
  O      124.096     471.041     512.393
  C      125.115     471.931     510.373
  O      125.395     473.227     510.978
  C      126.373     471.064     510.547
  O      127.198     471.272     509.392
  C      127.009     471.682     511.774
  O      128.367     471.315     511.892
  C      126.729     473.166     511.524
  N      126.868     473.977     512.730
  C      128.153     474.385     513.063
  O      129.151     474.074     512.411
  N      128.272     475.137     514.199
  C      127.256     475.455     515.051
  O      127.426     476.107     516.078
  C      125.925     474.956     514.674
  C      125.791     474.254     513.549
  O      123.990     468.435     512.413
  O      123.662     469.828     514.536
  H      128.438     470.355     512.079
  H      124.432     469.292     514.804
  H      129.198     475.451     514.448
  H      125.099     475.184     515.338
  H      124.820     473.875     513.247
  H      127.418     473.570     510.767
  H      126.499     471.349     512.684
  H      126.147     470.001     510.672
  H      124.906     472.118     509.311
  H      123.041     472.073     510.979
  H      123.554     470.438     510.494
  P      126.880     470.588     507.981
  C      128.494     468.638     508.475
  O      127.173     469.010     508.093
  O      127.542     471.242     506.817
  O      125.286     470.659     507.843
  H      125.042     470.687     506.896
  H      128.567     467.571     508.515
  H      128.715     469.047     509.439
  H      129.192     469.016     507.758

 6  7  8  9  10  11  12  13  14  15  16  26  31  32  33  34  35 0
 6-311+G(2d,p)
 ****
 36  37 0
 6-311+G(2d,p)
 ****
 1  2  3  4  5  17  18  19  20  21  22  23  24  25 0
 3-21G
 ****
 27  28  29  30  38  39  40  41  42  43  44  45 0
 3-21G
 ****


