%nproc=1
%NoSave
%Mem=1900MB
#P OB98/GEN NMR

erre ene a

0 1
  C     -186.058    -261.967     -97.731
  O     -186.572    -262.633     -98.877
  P     -188.104    -263.117     -98.826
  C     -187.305    -265.474     -98.086
  O     -188.130    -264.348     -97.796
  C     -187.420    -266.519     -96.982
  O     -186.884    -265.988     -95.752
  C     -188.845    -266.943     -96.655
  O     -189.334    -267.911     -97.573
  C     -188.661    -267.545     -95.270
  O     -188.180    -268.897     -95.390
  C     -187.574    -266.644     -94.658
  N     -188.951    -265.587     -89.899
  C     -188.436    -266.748     -90.434
  N     -188.239    -267.771     -89.575
  N     -188.149    -266.901     -91.700
  C     -188.361    -265.784     -92.435
  C     -188.868    -264.572     -92.024
  C     -189.230    -264.432     -90.625
  O     -189.750    -263.448     -90.111
  N     -188.924    -263.678     -93.057
  C     -188.423    -264.328     -94.086
  N     -188.094    -265.627     -93.764
  O     -188.306    -263.823    -100.249
  O     -189.103    -262.034     -98.593
  H     -187.853    -269.165     -94.514
  H     -189.251    -263.803    -100.498
  H     -189.138    -265.515     -88.914
  H     -188.279    -263.908     -95.068
  H     -186.826    -267.233     -94.117
  H     -189.592    -267.587     -94.695
  H     -188.315    -267.671     -88.568
  H     -189.509    -266.074     -96.592
  H     -187.826    -268.620     -89.938
  H     -186.812    -267.385     -97.264
  H     -186.264    -265.146     -98.160
  H     -187.611    -265.898     -99.047
  P     -190.930    -268.008     -97.731
  C     -191.024    -270.288     -96.484
  O     -191.417    -268.926     -96.512
  O     -191.109    -268.941     -99.019
  O     -191.616    -266.693     -97.882
  H     -191.967    -268.755     -99.452
  H     -190.008    -270.418     -96.873
  H     -191.725    -270.878     -97.082
  H     -191.050    -270.642     -95.450
  H     -185.035    -261.703     -97.901
  H     -186.123    -262.616     -96.883
  H     -186.629    -261.081     -97.547

 3  4  5  6  7  8  9  10  11  12  23  26  30  31  33  0
 6-311+G(2d,p)
 ****
 35  36  37  38 0
 6-311+G(2d,p)
 ****
 1  2  13  14  15  16  17  18  19  20  21  22  24  25  27  28  29 0
 3-21G
 ****
 32  34  39  40  41  42  43  44  45  46  47  48  49 0
 3-21G
 ****


