%nproc=1
%NoSave
%Mem=1900MB
#P OB98/GEN NMR

erre ene a

0 1
  C     -115.339      61.927     212.971
  O     -115.410      63.049     213.856
  P     -115.998      62.843     215.333
  C     -113.926      62.027     216.635
  O     -114.822      63.106     216.399
  C     -112.837      62.435     217.638
  O     -112.089      63.588     217.144
  C     -113.414      62.825     219.006
  O     -112.500      62.466     220.059
  C     -113.458      64.341     218.935
  O     -113.507      64.931     220.233
  C     -112.187      64.626     218.141
  N     -112.121      69.691     218.945
  C     -112.023      68.641     219.796
  N     -112.025      67.323     219.509
  C     -112.127      67.124     218.181
  C     -112.226      68.094     217.191
  C     -112.227      69.433     217.618
  N     -112.357      70.497     216.753
  N     -112.321      67.511     215.944
  C     -112.329      66.214     216.181
  N     -112.182      65.931     217.511
  O     -116.778      61.585     215.549
  O     -116.930      64.135     215.529
  H     -113.223      65.859     220.145
  H     -117.761      63.865     215.967
  H     -111.935      68.899     220.849
  H     -112.455      65.445     215.429
  H     -111.290      64.560     218.772
  H     -114.352      64.660     218.378
  H     -114.394      62.392     219.230
  H     -112.120      61.609     217.740
  H     -113.468      61.715     215.694
  H     -112.465      71.418     217.158
  H     -112.585      70.316     215.786
  H     -114.493      61.159     216.992
  P     -112.997      61.302     221.058
  C     -112.388      58.992     219.992
  O     -112.004      60.066     220.819
  O     -114.460      61.007     220.947
  O     -112.570      61.888     222.487
  H     -111.646      62.192     222.541
  H     -111.529      58.327     219.856
  H     -112.707      59.350     219.007
  H     -113.203      58.429     220.461
  H     -114.925      62.237     212.034
  H     -116.322      61.534     212.814
  H     -114.717      61.171     213.403

 3  4  5  6  7  8  9  10  11  12  22  25  29  30  31  32 0
 6-311+G(2d,p)
 ****
 33  36  37 0
 6-311+G(2d,p)
 ****
 1  2  13  14  15  16  17  18  19  20  21  23  24  26 0
 3-21G
 ****
 27  28  34  35  38  39  40  41  42  43  44  45  46  47  48 0
 3-21G
 ****


