%nproc=1
%NoSave
%Mem=1900MB
#P OB98/GEN NMR

erre ene a

0 1
  C     -892.954    -897.470     210.514
  O     -893.754    -898.330     211.299
  H     -891.994    -897.940     210.309
  H     -893.454    -897.290     209.562
  H     -892.804    -896.510     211.025
  P     -893.284    -898.590     212.811
  C     -895.474    -897.550     213.731
  O     -894.054    -897.500     213.704
  C     -896.014    -896.650     214.850
  O     -895.734    -897.260     216.124
  C     -895.404    -895.250     214.829
  O     -896.414    -894.280     215.176
  C     -894.354    -895.310     215.938
  O     -894.074    -894.030     216.480
  C     -895.034    -896.270     216.903
  N     -892.974    -896.200     221.604
  C     -894.024    -895.530     221.061
  N     -894.504    -895.580     219.799
  C     -893.854    -896.510     219.113
  C     -892.764    -897.320     219.515
  C     -892.344    -897.090     220.844
  N     -891.264    -897.770     221.382
  N     -892.314    -898.140     218.472
  C     -893.154    -897.860     217.468
  N     -894.074    -896.880     217.792
  O     -891.774    -898.040     212.797
  O     -893.324    -900.000     213.290
  H     -894.914    -893.610     216.790
  H     -891.184    -898.710     212.400
  H     -894.494    -894.810     221.726
  H     -893.104    -898.320     216.503
  H     -895.774    -895.770     217.574
  H     -893.444    -895.730     215.553
  H     -894.944    -894.980     213.868
  H     -897.124    -896.600     214.758
  H     -895.804    -898.580     213.914
  H     -890.974    -897.550     222.312
  H     -890.734    -898.400     220.817
  H     -895.864    -897.240     212.761
  P     -896.904    -893.360     213.966
  C     -899.324    -894.290     213.783
  O     -898.074    -894.130     213.132
  O     -895.684    -893.310     212.949
  O     -897.294    -891.960     214.448
  H     -895.484    -892.420     212.717
  H     -900.000    -894.807     213.134
  H     -899.726    -893.328     214.025
  H     -899.188    -894.856     214.681

 6  7  8  9  10  11  12  13  14  15  25  28  32  33  34  35 0
 6-311+G(2d,p)
 ****
 36  39  40 0
 6-311+G(2d,p)
 ****
 1  2  3  4  5  16  17  18  19  20  21  22  23  24 0
 3-21G
 ****
 26  27  29  30  31  37  38  41  42  43  44  45  46  47 0
 3-21G
 ****
 48 0
 3-21G
 ****


