%nproc=1
%NoSave
%Mem=1900MB
#P OB98/GEN NMR

erre ene a

0 1
  C      -54.466    -264.407      46.608
  O      -53.769    -265.602      46.304
  H      -54.238    -264.121      47.639
  H      -55.545    -264.567      46.518
  H      -54.149    -263.604      45.939
  P      -53.955    -266.179      44.817
  C      -56.538    -266.185      45.004
  O      -55.354    -266.961      44.872
  C      -57.764    -267.089      45.102
  O      -58.961    -266.307      45.253
  C      -57.994    -267.970      43.878
  O      -57.164    -269.119      43.916
  C      -59.462    -268.329      44.061
  O      -59.585    -269.389      45.031
  C      -60.061    -267.028      44.629
  N      -63.784    -263.577      43.862
  C      -63.506    -264.380      44.912
  N      -62.526    -265.305      45.028
  C      -61.787    -265.356      43.910
  C      -61.947    -264.599      42.761
  C      -62.997    -263.665      42.762
  N      -63.270    -262.839      41.692
  N      -60.997    -264.934      41.817
  C      -60.244    -265.837      42.407
  N      -60.699    -266.154      43.663
  O      -52.796    -266.932      44.265
  O      -54.342    -264.844      44.020
  H      -59.266    -269.045      45.884
  H      -54.920    -264.276      44.561
  H      -64.156    -264.267      45.774
  H      -59.349    -266.278      41.979
  H      -60.804    -267.229      45.409
  H      -59.919    -268.691      43.137
  H      -57.880    -267.402      42.949
  H      -57.657    -267.701      46.009
  H      -56.642    -265.502      44.149
  H      -64.136    -262.325      41.710
  H      -62.764    -262.993      40.833
  H      -56.438    -265.585      45.915
  P      -55.960    -269.291      42.867
  C      -57.178    -271.278      41.782
  O      -55.981    -270.828      42.402
  O      -54.636    -268.805      43.337
  O      -56.452    -268.510      41.560
  H      -55.701    -268.044      41.141
  H      -57.076    -272.310      41.517
  H      -57.362    -270.700      40.901
  H      -57.997    -271.163      42.462

 6  7  8  9  10  11  12  13  14  15  25  28  32  33  34  35 0
 6-311+G(2d,p)
 ****
 36  39  40 0
 6-311+G(2d,p)
 ****
 1  2  3  4  5  16  17  18  19  20  21  22  23  24 0
 3-21G
 ****
 26  27  29  30  31  37  38  41  42  43  44  45  46  47 0
 3-21G
 ****
 48 0
 3-21G
 ****


