%nproc=1
%NoSave
%Mem=1900MB
#P OB98/GEN NMR

erre ene a

0 1
  C     -290.333    -326.366     217.329
  O     -291.383    -326.669     218.222
  H     -289.605    -327.183     217.349
  H     -289.834    -325.443     217.635
  H     -290.719    -326.261     216.312
  P     -292.563    -325.588     218.348
  C     -293.793    -325.717     220.629
  O     -293.669    -326.244     219.315
  C     -293.413    -326.775     221.666
  O     -294.398    -327.848     221.629
  C     -292.033    -327.407     221.429
  O     -291.409    -327.640     222.698
  C     -292.373    -328.745     220.797
  O     -291.331    -329.702     220.967
  C     -293.666    -329.085     221.528
  N     -294.628    -334.023     221.340
  C     -293.828    -333.295     222.202
  N     -293.178    -333.991     223.162
  N     -293.675    -332.000     222.128
  C     -294.403    -331.430     221.136
  C     -295.221    -332.036     220.212
  C     -295.362    -333.476     220.291
  O     -296.038    -334.176     219.544
  N     -295.754    -331.116     219.344
  C     -295.261    -329.956     219.745
  N     -294.438    -330.096     220.831
  O     -293.261    -325.630     216.908
  O     -292.135    -324.211     218.727
  H     -291.183    -329.818     221.929
  H     -293.645    -324.761     216.684
  H     -294.699    -335.019     221.436
  H     -295.464    -328.996     219.287
  H     -293.488    -329.464     222.540
  H     -292.550    -328.619     219.720
  H     -293.271    -334.983     223.300
  H     -291.375    -326.801     220.802
  H     -292.596    -333.473     223.813
  H     -293.475    -326.326     222.664
  H     -294.830    -325.405     220.792
  H     -293.136    -324.847     220.731
  P     -290.701    -326.392     223.416
  C     -288.257    -327.241     223.184
  O     -289.316    -326.888     224.060
  O     -291.635    -326.134     224.693
  O     -290.610    -325.172     222.558
  H     -292.148    -325.320     224.564
  H     -287.407    -327.549     223.757
  H     -287.994    -326.396     222.583
  H     -288.570    -328.045     222.551

 6  7  8  9  10  11  12  13  14  15  26  29  33  34 0
 6-311+G(2d,p)
 ****
 36  38  39  40  41 0
 6-311+G(2d,p)
 ****
 1  2  3  4  5  16  17  18  19  20  21  22  23  24  25 0
 3-21G
 ****
 27  28  30  31  32  35  37  42  43  44  45  46  47 0
 3-21G
 ****
 48  49 0
 3-21G
 ****


