%nproc=1
%NoSave
%Mem=1900MB
#P OB98/GEN NMR

erre ene a

0 1
  C     -400.884     544.096    -188.764
  O     -399.516     544.267    -188.408
  P     -399.196     545.055    -187.029
  C     -398.859     547.541    -186.386
  O     -398.984     546.580    -187.425
  C     -398.091     548.760    -186.881
  O     -398.525     549.164    -188.196
  C     -398.260     550.010    -186.010
  O     -397.415     549.979    -184.862
  C     -397.808     551.109    -186.974
  O     -396.370     551.165    -187.007
  C     -398.377     550.593    -188.307
  N     -400.594     554.693    -190.325
  C     -399.244     554.318    -190.301
  N     -398.382     555.195    -190.851
  N     -398.796     553.192    -189.805
  C     -399.796     552.424    -189.278
  C     -401.155     552.660    -189.259
  C     -401.621     553.923    -189.808
  O     -402.779     554.316    -189.796
  N     -401.839     551.637    -188.644
  C     -400.899     550.754    -188.327
  N     -399.639     551.203    -188.659
  O     -397.720     544.551    -186.656
  O     -400.181     544.793    -185.927
  H     -396.086     551.493    -186.127
  H     -397.539     544.745    -185.718
  H     -400.869     555.558    -190.713
  H     -401.078     549.811    -187.855
  H     -397.671     550.767    -189.140
  H     -398.171     552.091    -186.683
  H     -398.640     556.109    -191.196
  H     -399.304     550.155    -185.743
  H     -397.373     554.996    -190.797
  H     -397.021     548.492    -186.943
  H     -398.328     547.097    -185.550
  H     -399.859     547.841    -186.045
  P     -397.558     551.219    -183.849
  C     -396.617     553.638    -183.820
  O     -396.636     552.380    -184.455
  O     -396.761     550.712    -182.550
  O     -398.975     551.593    -183.518
  H     -397.080     551.137    -181.755
  H     -395.764     554.220    -184.184
  H     -396.520     553.522    -182.742
  H     -397.527     554.197    -184.039
  H     -400.948     543.563    -189.690
  H     -401.347     545.055    -188.872
  H     -401.385     543.542    -187.998

 3  4  5  6  7  8  9  10  11  12  23  26  30  31 0
 6-311+G(2d,p)
 ****
 33  35  36  37  38 0
 6-311+G(2d,p)
 ****
 1  2  13  14  15  16  17  18  19  20  21  22  24  25 0
 3-21G
 ****
 27  28  29  32  34  39  40  41  42  43  44  45  46  47  48  49 0
 3-21G
 ****


