%nproc=1
%NoSave
%Mem=1900MB
#P OB98/GEN NMR

erre ene a

0 1
  C       48.116     -54.861      58.605
  O       47.323     -54.949      59.790
  P       46.620     -53.586      60.267
  C       44.711     -54.889      61.440
  O       45.743     -53.924      61.569
  C       45.233     -56.299      61.738
  O       45.841     -56.352      63.064
  C       44.142     -57.381      61.699
  O       44.758     -58.567      61.181
  C       43.806     -57.545      63.172
  O       43.092     -58.738      63.454
  C       45.203     -57.438      63.770
  N       45.642     -59.646      68.347
  C       45.668     -60.151      67.094
  N       45.539     -59.495      65.922
  C       45.376     -58.178      66.135
  C       45.326     -57.518      67.353
  C       45.469     -58.312      68.503
  N       45.422     -57.811      69.783
  N       45.119     -56.159      67.163
  C       44.976     -56.029      65.857
  N       45.204     -57.201      65.194
  O       45.529     -53.311      59.129
  O       47.572     -52.448      60.430
  H       42.385     -58.865      62.791
  H       45.859     -52.650      58.493
  H       45.806     -61.226      67.025
  H       44.710     -55.115      65.344
  H       45.799     -58.343      63.594
  H       43.182     -56.704      63.496
  H       43.285     -57.119      61.073
  H       46.019     -56.536      61.010
  H       44.301     -54.867      60.427
  H       45.530     -58.462      70.545
  H       45.283     -56.825      69.942
  H       43.887     -54.622      62.110
  P       44.648     -58.872      59.609
  C       47.130     -59.471      59.371
  O       45.801     -59.953      59.329
  O       45.314     -57.543      59.007
  O       43.284     -59.166      59.086
  H       46.166     -57.351      59.435
  H       47.812     -60.316      59.245
  H       47.330     -58.994      60.334
  H       47.296     -58.759      58.558
  H       48.533     -55.821      58.383
  H       48.906     -54.155      58.756
  H       47.503     -54.541      57.789

 3  4  5  6  7  8  9  10  11  12  22  25  29  30  31  32 0
 6-311+G(2d,p)
 ****
 33  36  37 0
 6-311+G(2d,p)
 ****
 1  2  13  14  15  16  17  18  19  20  21  23  24  26 0
 3-21G
 ****
 27  28  34  35  38  39  40  41  42  43  44  45  46  47  48 0
 3-21G
 ****


