%nproc=1
%NoSave
%Mem=1900MB
#P OB98/GEN NMR

erre ene a

0 1
  C     1003.729    -772.944    -558.702
  O     1004.640    -773.159    -559.777
  P     1006.219    -773.073    -559.468
  C     1006.537    -774.698    -557.486
  O     1006.685    -774.499    -558.890
  C     1007.570    -775.712    -556.961
  O     1007.367    -776.987    -557.641
  C     1009.037    -775.318    -557.219
  O     1009.703    -774.553    -556.234
  C     1009.720    -776.710    -557.204
  O     1009.977    -777.103    -555.854
  C     1008.656    -777.622    -557.802
  N     1011.019    -780.716    -561.158
  C     1010.991    -780.707    -559.816
  N     1010.330    -779.851    -558.996
  C     1009.654    -778.925    -559.707
  C     1009.589    -778.828    -561.083
  C     1010.323    -779.757    -561.825
  N     1010.350    -779.787    -563.209
  N     1008.796    -777.763    -561.449
  C     1008.393    -777.226    -560.305
  N     1008.878    -777.908    -559.224
  O     1006.673    -771.897    -558.688
  O     1006.850    -773.085    -560.932
  H     1010.628    -776.460    -555.496
  H     1007.625    -772.488    -560.945
  H     1011.558    -781.493    -559.308
  H     1007.773    -776.355    -560.225
  H     1008.601    -778.596    -557.296
  H     1010.672    -776.705    -557.730
  H     1009.159    -774.873    -558.207
  H     1007.406    -775.871    -555.884
  H     1005.530    -775.070    -557.274
  H     1010.942    -780.467    -563.652
  H     1009.898    -779.033    -563.715
  H     1006.625    -773.721    -557.008
  P     1009.976    -772.969    -556.467
  C     1008.639    -770.909    -555.556
  O     1008.623    -772.229    -556.039
  O     1010.495    -772.602    -557.831
  O     1010.982    -772.616    -555.278
  H     1010.572    -772.654    -554.390
  H     1007.618    -770.527    -555.533
  H     1009.249    -770.266    -556.225
  H     1009.074    -770.884    -554.542
  H     1002.725    -773.033    -559.062
  H     1003.878    -771.964    -558.299
  H     1003.900    -773.673    -557.938

 3  4  5  6  7  8  9  10  11  12  22  25  29  30  31  32 0
 6-311+G(2d,p)
 ****
 33  36  37 0
 6-311+G(2d,p)
 ****
 1  2  13  14  15  16  17  18  19  20  21  23  24  26 0
 3-21G
 ****
 27  28  34  35  38  39  40  41  42  43  44  45  46  47  48 0
 3-21G
 ****


