%nproc=1
%NoSave
%Mem=1900MB
#P OB98/GEN NMR

erre ene a

0 1
  C      366.921     323.843     149.274
  O      365.556     323.778     148.909
  H      367.526     323.550     148.412
  H      367.126     323.150     150.093
  H      367.196     324.860     149.565
  P      364.450     324.255     149.966
  C      363.520     325.924     148.247
  O      364.038     325.752     149.557
  C      363.089     327.373     148.026
  O      361.838     327.600     148.723
  C      364.106     328.401     148.533
  O      364.128     329.501     147.624
  C      363.522     328.847     149.859
  O      363.936     330.163     150.219
  C      362.022     328.730     149.597
  N      360.544     331.002     153.860
  C      361.228     331.507     152.773
  N      361.601     332.803     152.835
  N      361.527     330.799     151.714
  C      361.084     329.520     151.780
  C      360.398     328.904     152.799
  C      360.085     329.694     153.970
  O      359.492     329.300     154.969
  N      360.148     327.587     152.503
  C      360.683     327.408     151.309
  N      361.272     328.549     150.832
  O      364.822     324.087     151.404
  O      363.154     323.399     149.584
  H      363.560     330.351     151.106
  H      363.050     322.640     150.188
  H      360.347     331.590     154.654
  H      360.680     326.481     150.753
  H      361.612     329.621     149.104
  H      363.838     328.158     150.652
  H      361.389     333.413     153.609
  H      365.113     327.989     148.644
  H      362.083     333.201     152.038
  H      362.887     327.516     146.955
  H      362.655     325.260     148.128
  H      364.285     325.642     147.513
  P      365.389     329.670     146.647
  C      364.003     328.774     144.669
  O      365.208     328.654     145.418
  O      366.727     329.640     147.306
  O      365.114     331.095     145.959
  H      365.974     331.508     145.739
  H      363.998     328.049     143.882
  H      363.940     329.756     144.249
  H      363.165     328.607     145.313

 6  7  8  9  10  11  12  13  14  15  26  29  33  34 0
 6-311+G(2d,p)
 ****
 36  38  39  40  41 0
 6-311+G(2d,p)
 ****
 1  2  3  4  5  16  17  18  19  20  21  22  23  24  25 0
 3-21G
 ****
 27  28  30  31  32  35  37  42  43  44  45  46  47 0
 3-21G
 ****
 48  49 0
 3-21G
 ****


