%nproc=1
%NoSave
%Mem=1900MB
#P OB98/GEN NMR

erre ene a

0 1
  C     -379.766     185.287     -55.429
  O     -380.039     184.217     -56.320
  P     -380.116     182.700     -55.804
  C     -382.590     183.007     -55.200
  O     -381.306     182.601     -54.733
  C     -383.565     181.828     -55.255
  O     -383.667     181.226     -53.929
  C     -384.988     182.208     -55.698
  O     -385.468     181.127     -56.516
  C     -385.756     182.272     -54.399
  O     -387.156     182.110     -54.582
  C     -385.073     181.156     -53.606
  N     -385.288     181.281     -52.168
  C     -384.831     180.229     -51.363
  O     -384.385     179.202     -51.880
  N     -384.887     180.368     -49.998
  C     -385.534     181.380     -49.489
  N     -385.518     181.518     -48.132
  C     -386.249     182.381     -50.309
  C     -386.048     182.292     -51.628
  O     -378.816     182.126     -55.346
  O     -380.687     181.887     -57.062
  H     -380.090     181.134     -57.255
  H     -387.317     181.267     -55.065
  H     -386.871     183.128     -49.847
  H     -386.513     182.995     -52.315
  H     -385.429     180.172     -53.927
  H     -385.585     183.247     -53.916
  H     -385.012     183.139     -56.285
  H     -383.145     181.063     -55.924
  H     -384.984     180.839     -47.601
  H     -382.471     183.417     -56.208
  H     -385.704     182.412     -47.676
  H     -382.983     183.801     -54.559
  P     -386.429     181.481     -57.759
  C     -384.526     182.076     -59.422
  O     -385.660     182.521     -58.706
  O     -387.530     182.420     -57.050
  O     -387.112     180.332     -58.429
  H     -388.365     182.383     -57.565
  H     -384.086     182.930     -59.952
  H     -384.817     181.313     -60.154
  H     -383.777     181.659     -58.740
  H     -379.759     186.210     -55.971
  H     -378.811     185.135     -54.971
  H     -380.522     185.323     -54.673

 3  4  5  6  7  8  9  10  11  12  13  24  27  28  29  30  32 0
 6-311+G(2d,p)
 ****
 34  35 0
 6-311+G(2d,p)
 ****
 1  2  14  15  16  17  18  19  20  21  22  23  25  26 0
 3-21G
 ****
 31  33  36  37  38  39  40  41  42  43  44  45  46 0
 3-21G
 ****


