%nproc=1
%NoSave
%Mem=1900MB
#P OB98/GEN NMR

erre ene a

0 1
  C     -363.803    -213.031     209.307
  O     -362.578    -213.247     208.627
  H     -363.680    -213.317     210.357
  H     -364.592    -213.652     208.864
  H     -364.084    -211.977     209.256
  P     -362.553    -212.873     207.069
  C     -363.634    -213.918     204.937
  O     -363.316    -214.065     206.313
  C     -364.119    -215.255     204.354
  O     -362.981    -216.168     204.272
  C     -365.189    -215.952     205.217
  O     -366.013    -216.743     204.336
  C     -364.339    -216.875     206.077
  O     -365.134    -217.849     206.712
  C     -363.335    -217.350     205.026
  N     -361.266    -221.711     206.717
  C     -362.458    -221.444     206.150
  N     -362.936    -220.259     205.717
  C     -362.031    -219.287     205.899
  C     -360.767    -219.403     206.452
  C     -360.388    -220.687     206.882
  N     -359.169    -220.961     207.472
  N     -360.121    -218.181     206.470
  C     -360.979    -217.339     205.932
  N     -362.147    -217.957     205.576
  O     -361.016    -213.086     206.663
  O     -363.033    -211.501     206.729
  H     -364.576    -218.553     207.109
  H     -360.539    -212.234     206.707
  H     -363.131    -222.300     206.036
  H     -360.815    -216.272     205.789
  H     -363.784    -218.070     204.331
  H     -363.836    -216.313     206.868
  H     -365.821    -215.258     205.773
  H     -364.470    -215.089     203.331
  H     -362.730    -213.587     204.408
  H     -364.417    -213.164     204.823
  H     -358.985    -221.910     207.770
  H     -358.516    -220.214     207.620
  P     -367.575    -216.383     204.194
  C     -369.792    -217.063     205.426
  O     -368.413    -217.329     205.187
  O     -367.934    -217.013     202.763
  O     -367.919    -214.931     204.235
  H     -368.674    -216.515     202.364
  H     -370.183    -217.790     206.107
  H     -370.330    -217.114     204.503
  H     -369.899    -216.085     205.847

 6  7  8  9  10  11  12  13  14  15  25  28  32  33  34  35 0
 6-311+G(2d,p)
 ****
 36  37  40 0
 6-311+G(2d,p)
 ****
 1  2  3  4  5  16  17  18  19  20  21  22  23  24 0
 3-21G
 ****
 26  27  29  30  31  38  39 41  42  43  44  45  46  47  48 0
 3-21G
 ****


