%nproc=1
%NoSave
%Mem=1900MB
#P OB98/GEN NMR

erre ene a

0 1
  C      241.664      34.693    -276.729
  O      241.848      35.186    -275.413
  P      240.935      36.417    -274.937
  C      241.078      39.013    -275.157
  O      241.644      37.753    -275.486
  C      241.882      40.146    -275.805
  O      243.189      40.209    -275.175
  C      242.113      39.991    -277.313
  O      242.142      41.308    -277.871
  C      243.494      39.372    -277.385
  O      244.122      39.565    -278.651
  C      244.176      40.073    -276.219
  N      249.233      39.822    -276.024
  C      248.412      40.692    -276.721
  N      249.038      41.673    -277.415
  N      247.106      40.618    -276.736
  C      246.628      39.596    -275.983
  C      247.333      38.646    -275.284
  C      248.778      38.761    -275.247
  O      249.533      38.066    -274.572
  N      246.502      37.714    -274.715
  C      245.290      38.153    -275.007
  N      245.316      39.313    -275.731
  O      241.193      36.471    -273.361
  O      239.480      36.320    -275.280
  H      243.605      39.073    -279.317
  H      240.508      35.968    -272.877
  H      250.230      39.939    -276.040
  H      244.364      37.678    -274.716
  H      244.539      41.078    -276.483
  H      243.425      38.288    -277.209
  H      250.041      41.808    -277.422
  H      241.350      39.383    -277.814
  H      248.459      42.347    -277.907
  H      241.371      41.092    -275.595
  H      241.112      39.144    -274.066
  H      240.033      39.044    -275.474
  P      242.002      41.450    -279.463
  C      243.619      41.430    -281.487
  O      243.437      41.160    -280.108
  O      241.825      43.035    -279.659
  O      240.847      40.711    -280.061
  H      241.254      43.211    -280.430
  H      244.690      41.567    -281.676
  H      243.091      42.332    -281.797
  H      243.264      40.576    -282.073
  H      242.337      33.879    -276.902
  H      241.860      35.474    -277.433
  H      240.656      34.353    -276.845

 3  4  5  6  7  8  9  10  11  12  23  26  30  31 0
 6-311+G(2d,p)
 ****
 33  35  36  37  38 0
 6-311+G(2d,p)
 ****
 1  2  13  14  15  16  17  18  19  20  21  22  24  25 0
 3-21G
 ****
 27  28  29  32  34  39  40  41  42  43  44  45  46  47  48  49 0
 3-21G
 ****


