%nproc=1
%NoSave
%Mem=1900MB
#P OB98/GEN NMR

erre ene a

0 1
  C      -83.516     156.163     -36.182
  O      -84.742     155.908     -36.840
  P      -84.789     155.680     -38.422
  C      -86.121     153.494     -38.509
  O      -84.844     154.094     -38.682
  C      -86.520     152.675     -39.735
  O      -86.665     153.567     -40.874
  C      -85.514     151.585     -40.133
  O      -86.276     150.497     -40.669
  C      -84.726     152.248     -41.250
  O      -84.063     151.313     -42.094
  C      -85.836     153.042     -41.932
  N      -85.073     154.715     -46.701
  C      -85.560     153.549     -46.225
  N      -85.708     153.169     -44.939
  C      -85.296     154.138     -44.108
  C      -84.746     155.366     -44.443
  C      -84.654     155.653     -45.818
  N      -84.191     156.851     -46.321
  N      -84.388     156.063     -43.306
  C      -84.718     155.272     -42.305
  N      -85.325     154.127     -42.741
  O      -83.740     156.400     -39.201
  O      -86.255     156.165     -38.841
  H      -83.460     150.778     -41.544
  H      -86.201     157.026     -39.297
  H      -85.879     152.830     -46.973
  H      -84.537     155.475     -41.260
  H      -86.463     152.412     -42.573
  H      -83.967     152.913     -40.820
  H      -84.878     151.246     -39.313
  H      -87.507     152.232     -39.546
  H      -86.854     154.294     -38.355
  H      -84.294     157.000     -47.312
  H      -84.128     157.653     -45.697
  H      -86.113     152.856     -37.616
  P      -85.646     149.021     -40.703
  C      -86.493     147.592     -38.758
  O      -85.531     148.540     -39.182
  O      -84.403     148.878     -41.516
  O      -86.839     148.120     -41.282
  H      -86.480     147.273     -41.602
  H      -87.428     148.105     -38.518
  H      -86.123     147.085     -37.862
  H      -86.683     146.846     -39.537
  H      -83.693     156.286     -35.134
  H      -83.078     157.056     -36.577
  H      -82.850     155.340     -36.337

 3  4  5  6  7  8  9  10  11  12  22  25  29  30  31  32 0
 6-311+G(2d,p)
 ****
 33  36  37 0
 6-311+G(2d,p)
 ****
 1  2  13  14  15  16  17  18  19  20  21  23  24  26 0
 3-21G
 ****
 27  28  34  35  38  39  40  41  42  43  44  45  46  47  48 0
 3-21G
 ****


