%nproc=1
%NoSave
%Mem=1900MB
#P OB98/GEN NMR

erre ene a

0 1
  C       -1.498     -47.283     -36.599
  O       -1.178     -46.089     -35.906
  P        0.329     -45.552     -35.963
  C        1.958     -44.913     -37.885
  O        0.833     -45.677     -37.480
  C        2.861     -45.740     -38.803
  O        3.528     -46.775     -38.019
  C        2.114     -46.443     -39.947
  O        2.995     -46.480     -41.079
  C        1.927     -47.846     -39.401
  O        1.665     -48.808     -40.410
  C        3.262     -48.032     -38.672
  N        3.240     -49.140     -37.720
  C        3.144     -50.427     -38.239
  O        3.075     -50.681     -39.440
  N        3.064     -51.437     -37.318
  C        2.981     -51.286     -35.965
  O        2.793     -52.225     -35.200
  C        3.088     -49.904     -35.473
  C        3.211     -48.911     -36.357
  O        1.151     -46.689     -35.194
  O        0.534     -44.206     -35.354
  H        2.436     -48.824     -41.007
  H        1.340     -46.412     -34.278
  H        3.005     -52.377     -37.676
  H        3.048     -49.749     -34.402
  H        3.272     -47.880     -36.023
  H        4.069     -48.193     -39.398
  H        1.084     -47.854     -38.700
  H        1.169     -45.962     -40.214
  H        3.643     -45.084     -39.206
  H        2.524     -44.613     -37.002
  H        1.621     -44.003     -38.393
  P        2.335     -46.555     -42.541
  C        0.761     -44.950     -43.874
  O        1.264     -45.368     -42.623
  O        1.438     -47.875     -42.396
  O        3.334     -46.630     -43.648
  H        0.963     -47.913     -41.550
  H        0.670     -45.787     -44.571
  H        1.428     -44.197     -44.300
  H       -0.227     -44.505     -43.727
  H       -2.536     -47.506     -36.464
  H       -0.907     -48.088     -36.215
  H       -1.293     -47.156     -37.641

 3  4  5  6  7  8  9  10  11  12  13  23  28  29  30  31  32 0
 6-311+G(2d,p)
 ****
 33  34 0
 6-311+G(2d,p)
 ****
 1  2  14  15  16  17  18  19  20  21  22  24  25  26 0
 3-21G
 ****
 27  35  36  37  38  39  40  41  42  43  44  45 0
 3-21G
 ****


