%nproc=1
%NoSave
%Mem=1900MB
#P OB98/GEN NMR

erre ene a

0 1
  C      204.289     -66.068      56.844
  O      204.278     -67.482      56.800
  H      205.312     -65.718      56.689
  H      203.938     -65.720      57.815
  H      203.651     -65.656      56.054
  P      202.843     -68.189      56.966
  C      201.704     -69.415      58.972
  O      202.670     -68.462      58.539
  C      201.284     -69.132      60.416
  O      202.359     -69.562      61.305
  C      201.044     -67.636      60.710
  O      200.051     -67.528      61.745
  C      202.394     -67.201      61.260
  O      202.274     -65.970      61.939
  C      202.722     -68.419      62.111
  N      206.539     -65.885      64.366
  C      205.224     -65.598      64.219
  N      204.268     -66.331      63.610
  C      204.784     -67.483      63.151
  C      206.096     -67.917      63.230
  C      207.004     -67.050      63.869
  N      208.343     -67.337      64.003
  N      206.237     -69.152      62.617
  C      205.035     -69.457      62.190
  N      204.116     -68.488      62.492
  O      203.084     -69.652      56.353
  O      201.699     -67.494      56.319
  H      202.067     -65.246      61.322
  H      202.838     -69.658      55.409
  H      204.903     -64.645      64.642
  H      204.761     -70.361      61.647
  H      202.127     -68.466      63.039
  H      203.121     -67.068      60.457
  H      200.723     -67.071      59.828
  H      200.402     -69.737      60.665
  H      202.147     -70.415      58.896
  H      200.825     -69.358      58.316
  H      208.934     -66.648      64.450
  H      208.725     -68.183      63.599
  P      198.597     -66.939      61.377
  C      197.125     -64.862      61.988
  O      198.274     -65.645      62.279
  O      197.618     -68.041      62.008
  O      198.319     -66.776      59.914
  H      196.917     -68.263      61.365
  H      197.064     -64.048      62.680
  H      196.248     -65.470      62.073
  H      197.198     -64.479      60.992

 6  7  8  9  10  11  12  13  14  15  25  28  32  33  34  35 0
 6-311+G(2d,p)
 ****
 36  37  40 0
 6-311+G(2d,p)
 ****
 1  2  3  4  5  16  17  18  19  20  21  22  23  24 0
 3-21G
 ****
 26  27  29  30  31  38  39 41  42  43  44  45  46  47  48 0
 3-21G
 ****


