%nproc=1
%NoSave
%Mem=1900MB
#P OB98/GEN NMR

erre ene a

0 1
  C      115.364     -49.927     -31.143
  O      114.727     -49.703     -29.901
  H      116.330     -49.414     -31.170
  H      115.532     -51.000     -31.263
  H      114.731     -49.575     -31.964
  P      114.364     -48.181     -29.545
  C      115.770     -46.210     -28.605
  O      115.766     -47.421     -29.348
  C      116.978     -45.362     -28.992
  O      117.147     -45.355     -30.426
  C      116.885     -43.892     -28.583
  O      117.207     -43.705     -27.212
  C      117.937     -43.278     -29.492
  O      119.249     -43.513     -28.946
  C      117.754     -44.087     -30.787
  N      117.284     -40.006     -33.842
  C      118.290     -40.418     -33.038
  N      118.348     -41.530     -32.270
  C      117.227     -42.258     -32.402
  C      116.128     -41.978     -33.202
  C      116.177     -40.785     -33.945
  N      115.114     -40.335     -34.714
  N      115.161     -42.953     -33.063
  C      115.659     -43.798     -32.182
  N      116.910     -43.423     -31.764
  O      113.778     -48.293     -28.056
  O      113.395     -47.525     -30.473
  H      119.380     -44.479     -28.935
  H      112.804     -48.321     -28.096
  H      119.158     -39.773     -33.004
  H      115.156     -44.684     -31.821
  H      118.710     -44.314     -31.272
  H      117.824     -42.196     -29.611
  H      115.904     -43.469     -28.830
  H      117.873     -45.828     -28.556
  H      115.818     -46.440     -27.535
  H      115.072     -39.323     -34.798
  H      114.237     -40.816     -34.537
  H      114.843     -45.668     -28.814
  P      116.062     -43.116     -26.252
  C      115.109     -40.759     -25.779
  O      116.178     -41.517     -26.329
  O      116.614     -43.470     -24.790
  O      114.699     -43.679     -26.467
  H      115.944     -43.993     -24.303
  H      115.314     -39.715     -25.897
  H      115.008     -40.987     -24.739
  H      114.200     -41.003     -26.288

 6  7  8  9  10  11  12  13  14  15  25  28  32  33  34  35 0
 6-311+G(2d,p)
 ****
 36  39  40 0
 6-311+G(2d,p)
 ****
 1  2  3  4  5  16  17  18  19  20  21  22  23  24 0
 3-21G
 ****
 26  27  29  30  31  37  38  41  42  43  44  45  46  47  48 0
 3-21G
 ****


