%nproc=1
%NoSave
%Mem=1900MB
#P OB98/GEN NMR

erre ene a

0 1
  C     -136.894     406.223    -197.604
  O     -137.215     405.310    -198.637
  H     -137.033     405.755    -196.625
  H     -135.846     406.518    -197.711
  H     -137.522     407.114    -197.685
  P     -138.686     404.673    -198.590
  C     -137.717     402.274    -198.745
  O     -138.520     403.185    -198.008
  C     -137.720     400.907    -198.071
  O     -136.853     400.921    -196.918
  C     -139.080     400.456    -197.548
  O     -139.906     399.949    -198.586
  C     -138.661     399.361    -196.580
  O     -138.390     398.146    -197.312
  C     -137.356     399.914    -195.994
  N     -136.957     399.204    -190.927
  C     -136.711     398.379    -191.969
  N     -136.850     398.636    -193.286
  C     -137.276     399.896    -193.493
  C     -137.559     400.843    -192.524
  C     -137.388     400.459    -191.182
  N     -137.655     401.297    -190.123
  N     -137.951     402.032    -193.107
  C     -137.910     401.801    -194.403
  N     -137.505     400.523    -194.684
  O     -139.038     404.429    -200.136
  O     -139.724     405.513    -197.917
  H     -137.945     397.540    -196.689
  H     -139.991     404.592    -200.271
  H     -136.356     397.389    -191.712
  H     -138.150     402.531    -195.169
  H     -136.581     399.144    -195.921
  H     -139.424     399.130    -195.836
  H     -139.577     401.263    -196.990
  H     -137.320     400.175    -198.784
  H     -136.694     402.650    -198.791
  H     -137.333     401.039    -189.204
  H     -137.976     402.239    -190.326
  H     -138.115     402.195    -199.764
  P     -141.494     399.912    -198.316
  C     -141.594     397.327    -198.538
  O     -141.793     398.462    -197.699
  O     -142.109     399.811    -199.795
  O     -142.038     401.074    -197.567
  H     -143.014     400.171    -199.801
  H     -141.831     396.436    -197.995
  H     -140.572     397.291    -198.853
  H     -142.229     397.402    -199.396

 6  7  8  9  10  11  12  13  14  15  25  28  32  33  34  35 0
 6-311+G(2d,p)
 ****
 36  39  40 0
 6-311+G(2d,p)
 ****
 1  2  3  4  5  16  17  18  19  20  21  22  23  24 0
 3-21G
 ****
 26  27  29  30  31  37  38  41  42  43  44  45  46  47  48 0
 3-21G
 ****


