%nproc=1
%NoSave
%Mem=1900MB
#P OB98/GEN NMR

erre ene a

0 1
  C      -49.203     146.630    -245.462
  O      -48.880     146.916    -246.829
  P      -47.333     147.232    -247.142
  C      -47.522     149.822    -247.204
  O      -46.991     148.682    -246.540
  C      -46.918     151.124    -246.674
  O      -47.415     152.238    -247.458
  C      -47.238     151.432    -245.206
  O      -46.089     152.047    -244.604
  C      -48.322     152.490    -245.296
  O      -48.407     153.281    -244.114
  C      -47.863     153.248    -246.542
  N      -50.251     157.706    -246.446
  C      -49.130     157.291    -245.757
  N      -48.581     158.186    -244.904
  N      -48.593     156.107    -245.892
  C      -49.226     155.330    -246.801
  C      -50.341     155.631    -247.555
  C      -50.947     156.930    -247.364
  O      -51.973     157.338    -247.907
  N      -50.694     154.582    -248.370
  C      -49.801     153.648    -248.103
  N      -48.895     154.051    -247.152
  O      -47.322     147.455    -248.728
  O      -46.403     146.137    -246.739
  H      -49.112     153.938    -244.260
  H      -46.687     146.841    -249.145
  H      -50.635     158.621    -246.291
  H      -49.776     152.661    -248.545
  H      -47.012     153.903    -246.316
  H      -49.293     152.003    -245.454
  H      -48.904     159.135    -244.802
  H      -47.547     150.560    -244.618
  H      -47.731     157.916    -244.425
  H      -45.833     151.084    -246.824
  H      -48.607     149.848    -247.065
  H      -47.328     149.725    -248.277
  P      -44.900     151.062    -244.163
  C      -46.108     150.212    -242.024
  O      -45.591     149.901    -243.302
  O      -44.097     151.917    -243.076
  O      -44.031     150.610    -245.292
  H      -43.163     151.633    -243.049
  H      -46.148     151.290    -241.843
  H      -45.473     149.751    -241.261
  H      -47.117     149.803    -241.939
  H      -50.252     146.437    -245.376
  H      -48.944     147.469    -244.851
  H      -48.655     145.770    -245.138

 3  4  5  6  7  8  9  10  11  12  23  26  30  31  33  0
 6-311+G(2d,p)
 ****
 35  36  37  38 0
 6-311+G(2d,p)
 ****
 1  2  13  14  15  16  17  18  19  20  21  22  24  25  27  28  29 0
 3-21G
 ****
 32  34  39  40  41  42  43  44  45  46  47  48  49 0
 3-21G
 ****


