%nproc=1
%NoSave
%Mem=1900MB
#P OB98/GEN NMR

erre ene a

0 1
  C     -515.648    -164.003     197.663
  O     -516.482    -162.950     198.116
  H     -516.140    -164.506     196.826
  H     -515.482    -164.727     198.463
  H     -514.689    -163.602     197.317
  P     -515.941    -162.104     199.366
  C     -514.930    -160.153     197.981
  O     -514.680    -161.267     198.822
  C     -514.636    -158.849     198.722
  O     -513.303    -158.865     199.281
  C     -514.727    -157.603     197.848
  O     -516.071    -157.160     197.725
  C     -513.862    -156.627     198.643
  O     -514.591    -156.044     199.746
  C     -512.741    -157.529     199.150
  N     -508.011    -155.864     198.559
  C     -508.901    -155.676     199.592
  N     -508.476    -154.877     200.604
  N     -510.090    -156.210     199.641
  C     -510.374    -156.950     198.547
  C     -509.582    -157.232     197.460
  C     -508.251    -156.652     197.444
  O     -507.391    -156.837     196.579
  N     -510.224    -158.047     196.564
  C     -511.420    -158.228     197.090
  N     -511.569    -157.573     198.279
  O     -515.267    -163.210     200.312
  O     -516.971    -161.312     200.098
  H     -514.846    -156.749     200.367
  H     -515.350    -162.928     201.242
  H     -507.097    -155.437     198.587
  H     -512.210    -158.817     196.644
  H     -512.380    -157.234     200.146
  H     -513.523    -155.798     198.021
  H     -507.747    -154.196     200.474
  H     -514.275    -157.773     196.867
  H     -509.133    -154.720     201.361
  H     -515.342    -158.780     199.561
  H     -515.988    -160.161     197.680
  H     -514.308    -160.225     197.089
  P     -516.675    -157.019     196.246
  C     -517.931    -159.280     196.576
  O     -517.052    -158.500     195.757
  O     -515.396    -156.660     195.347
  O     -517.752    -155.996     196.102
  H     -515.672    -156.290     194.493
  H     -518.087    -160.236     196.122
  H     -518.869    -158.775     196.674
  H     -517.494    -159.412     197.544

 6  7  8  9  10  11  12  13  14  15  26  29  33  34 0
 6-311+G(2d,p)
 ****
 36  38  39  40  41 0
 6-311+G(2d,p)
 ****
 1  2  3  4  5  16  17  18  19  20  21  22  23  24  25 0
 3-21G
 ****
 27  28  30  31  32  35  37  42  43  44  45  46  47 0
 3-21G
 ****
 48  49 0
 3-21G
 ****


