%nproc=1
%NoSave
%Mem=1900MB
#P OB98/GEN NMR

erre ene a

0 1
  C       31.253      81.108      44.578
  O       30.019      80.447      44.365
  P       28.678      81.139      44.901
  C       28.697      79.673      47.048
  O       28.653      80.979      46.497
  C       27.404      79.371      47.809
  O       27.212      77.926      47.880
  C       27.386      79.906      49.248
  O       26.036      80.282      49.553
  C       27.769      78.681      50.057
  O       27.402      78.777      51.425
  C       27.025      77.596      49.271
  N       27.501      76.247      49.574
  C       26.930      75.599      50.663
  O       26.059      76.091      51.379
  N       27.441      74.363      50.956
  C       28.501      73.765      50.340
  O       28.986      72.708      50.725
  C       29.064      74.497      49.195
  C       28.547      75.684      48.869
  O       27.528      80.145      44.402
  O       28.460      82.533      44.418
  H       27.540      77.900      51.827
  H       27.102      80.495      43.597
  H       27.031      73.873      51.736
  H       29.893      74.041      48.669
  H       28.957      76.255      48.042
  H       25.948      77.656      49.472
  H       28.854      78.537      50.008
  H       28.063      80.750      49.410
  H       26.560      79.782      47.240
  H       29.541      79.601      47.735
  H       28.853      78.941      46.247
  P       25.805      81.606      50.433
  C       25.126      80.084      52.447
  O       25.902      81.161      51.967
  O       24.239      81.849      50.200
  O       26.658      82.759      50.017
  H       23.721      81.028      50.251
  H       24.997      79.311      51.684
  H       24.146      80.454      52.755
  H       25.627      79.644      53.312
  H       32.047      80.522      44.165
  H       31.413      81.235      45.628
  H       31.231      82.066      44.102

 3  4  5  6  7  8  9  10  11  12  13  23  28  29  30  31  32 0
 6-311+G(2d,p)
 ****
 33  34 0
 6-311+G(2d,p)
 ****
 1  2  14  15  16  17  18  19  20  21  22  24  25  26 0
 3-21G
 ****
 27  35  36  37  38  39  40  41  42  43  44  45 0
 3-21G
 ****


