%nproc=1
%NoSave
%Mem=1900MB
#P OB98/GEN NMR

erre ene a

0 1
  C      733.478     -87.576      62.660
  O      734.229     -87.393      63.842
  H      733.859     -86.893      61.896
  H      732.427     -87.343      62.846
  H      733.576     -88.601      62.295
  P      733.891     -88.367      65.071
  C      736.064     -89.731      64.684
  O      735.299     -88.949      65.591
  C      736.265     -91.145      65.230
  O      736.763     -91.996      64.154
  C      737.261     -91.241      66.393
  O      736.801     -92.267      67.289
  C      738.529     -91.738      65.715
  O      739.429     -92.362      66.624
  C      737.926     -92.678      64.672
  N      742.167     -95.194      63.676
  C      741.429     -95.104      64.841
  N      741.892     -95.786      65.906
  N      740.332     -94.399      64.948
  C      739.968     -93.791      63.795
  C      740.611     -93.798      62.582
  C      741.840     -94.560      62.478
  O      742.546     -94.660      61.482
  N      739.934     -93.038      61.660
  C      738.885     -92.572      62.319
  N      738.865     -93.004      63.616
  O      733.209     -89.620      64.347
  O      733.014     -87.786      66.129
  H      738.935     -93.056      67.113
  H      732.237     -89.518      64.334
  H      743.013     -95.736      63.649
  H      738.125     -91.921      61.905
  H      737.595     -93.630      65.108
  H      739.052     -90.902      65.233
  H      742.703     -96.387      65.887
  H      737.406     -90.302      66.943
  H      741.346     -95.768      66.760
  H      735.285     -91.550      65.517
  H      737.041     -89.259      64.548
  H      735.549     -89.771      63.721
  P      735.935     -91.819      68.559
  C      733.569     -92.893      68.446
  O      734.910     -93.002      68.901
  O      734.978     -90.682      67.959
  O      736.746     -91.310      69.705
  H      734.731     -90.052      68.663
  H      733.017     -93.756      68.753
  H      733.559     -92.825      67.378
  H      733.121     -92.016      68.864

 6  7  8  9  10  11  12  13  14  15  26  29  33  34 0
 6-311+G(2d,p)
 ****
 36  38  39  40  41 0
 6-311+G(2d,p)
 ****
 1  2  3  4  5  16  17  18  19  20  21  22  23  24  25 0
 3-21G
 ****
 27  28  30  31  32  35  37  42  43  44  45  46  47 0
 3-21G
 ****
 48  49 0
 3-21G
 ****


