%nproc=1
%NoSave
%Mem=1900MB
#P OB98/GEN NMR

erre ene a

0 1
  C      133.991      94.546      24.244
  O      133.810      94.064      25.578
  P      133.991      92.506      25.915
  C      131.475      92.042      26.043
  O      132.697      91.700      25.397
  C      130.231      91.579      25.273
  O      129.992      92.419      24.116
  C      130.284      90.129      24.772
  O      128.939      89.646      24.826
  C      130.742      90.305      23.336
  O      130.466      89.160      22.534
  C      129.994      91.585      22.943
  N      130.603      92.255      21.799
  C      129.787      92.483      20.688
  O      128.624      92.070      20.676
  N      130.319      93.127      19.597
  C      131.582      93.423      19.578
  N      132.057      94.037      18.460
  C      132.501      93.126      20.695
  C      131.946      92.554      21.767
  O      134.374      92.213      27.332
  O      135.149      92.030      24.913
  H      130.879      89.296      21.652
  H      135.650      91.299      25.325
  H      133.552      93.368      20.625
  H      132.537      92.302      22.637
  H      128.946      91.360      22.695
  H      131.825      90.473      23.308
  H      130.956      89.494      25.356
  H      129.369      91.709      25.939
  H      131.396      94.201      17.705
  H      131.437      93.133      26.161
  H      133.039      94.207      18.294
  H      131.471      91.610      27.050
  P      128.515      88.420      25.763
  C      128.399      86.443      24.138
  O      129.170      87.103      25.127
  O      127.049      88.314      26.036
  O      129.347      88.625      27.119
  H      128.940      88.097      27.828
  H      129.028      85.703      23.637
  H      128.027      87.157      23.396
  H      127.555      85.935      24.610
  H      133.828      95.603      24.222
  H      133.292      94.064      23.593
  H      134.988      94.331      23.919

 3  4  5  6  7  8  9  10  11  12  13  23  27  28  29  30  32 0
 6-311+G(2d,p)
 ****
 34  35 0
 6-311+G(2d,p)
 ****
 1  2  14  15  16  17  18  19  20  21  22  24  25  26 0
 3-21G
 ****
 31  33  36  37  38  39  40  41  42  43  44  45  46 0
 3-21G
 ****


