%nproc=1
%NoSave
%Mem=1900MB
#P OB98/GEN NMR

erre ene a

0 1
  C      239.419     578.877     122.851
  O      238.249     578.075     123.051
  P      236.848     578.662     122.535
  C      234.700     577.557     121.497
  O      236.041     577.400     121.951
  C      234.357     576.453     120.507
  O      235.101     576.622     119.270
  C      234.688     575.043     120.991
  O      233.757     574.601     121.972
  C      234.656     574.272     119.681
  O      233.301     573.957     119.314
  C      235.247     575.303     118.685
  N      236.629     575.026     118.329
  C      236.828     574.297     117.159
  O      235.897     573.889     116.460
  N      238.133     574.052     116.817
  C      239.235     574.414     117.540
  O      240.375     574.167     117.180
  C      238.963     575.130     118.794
  C      237.692     575.402     119.131
  O      237.314     579.473     121.228
  O      236.142     579.468     123.566
  H      238.047     579.045     120.759
  H      233.280     573.935     118.338
  H      238.296     573.541     115.962
  H      239.810     575.417     119.411
  H      237.475     575.925     120.056
  H      234.653     575.315     117.756
  H      235.205     573.323     119.739
  H      235.701     575.025     121.410
  H      233.280     576.522     120.269
  H      234.590     578.531     121.013
  H      234.029     577.542     122.359
  P      234.224     574.684     123.512
  C      233.071     575.546     125.696
  O      232.934     575.106     124.364
  O      235.139     576.001     123.485
  O      234.938     573.452     123.977
  H      234.725     576.734     122.986
  H      232.180     576.103     125.975
  H      233.948     576.194     125.810
  H      233.176     574.676     126.357
  H      240.274     578.365     123.241
  H      239.302     579.812     123.358
  H      239.556     579.053     121.805

 3  4  5  6  7  8  9  10  11  12  13  24  28  29  30  31  32 0
 6-311+G(2d,p)
 ****
 33  34 0
 6-311+G(2d,p)
 ****
 1  2  14  15  16  17  18  19  20  21  22  23  25  26  27 0
 3-21G
 ****
 35  36  37  38  39  40  41  42  43  44  45 0
 3-21G
 ****


