%nproc=1
%NoSave
%Mem=1900MB
#P OB98/GEN NMR

erre ene a

0 1
  C      141.390     513.875     442.993
  O      141.802     515.231     443.071
  H      142.264     513.260     442.747
  H      140.642     513.745     442.207
  H      140.988     513.542     443.953
  P      140.695     516.336     443.412
  C      141.096     516.584     445.954
  O      140.253     516.063     444.931
  C      140.737     515.960     447.299
  O      141.036     514.549     447.293
  C      141.493     516.559     448.482
  O      140.885     517.777     448.892
  C      141.347     515.441     449.500
  O      140.019     515.463     450.058
  C      141.527     514.193     448.616
  N      145.305     511.678     450.884
  C      144.040     511.997     451.355
  N      143.769     511.629     452.625
  N      143.149     512.642     450.651
  C      143.589     512.996     449.424
  C      144.815     512.752     448.853
  C      145.783     511.997     449.621
  O      146.904     511.675     449.237
  N      144.924     513.334     447.609
  C      143.745     513.900     447.418
  N      142.904     513.735     448.494
  O      139.541     516.435     442.458
  O      141.523     517.699     443.506
  H      139.941     516.290     450.567
  H      141.538     518.167     442.648
  H      145.957     511.197     451.484
  H      143.452     514.425     446.524
  H      140.935     513.340     448.974
  H      142.049     515.520     450.334
  H      144.497     511.406     453.288
  H      142.556     516.691     448.262
  H      142.867     511.906     453.002
  H      139.654     516.057     447.437
  H      140.947     517.668     445.982
  H      142.148     516.380     445.718
  P      141.613     519.195     448.646
  C      139.609     520.494     447.648
  O      140.845     519.836     447.391
  O      143.093     519.118     448.494
  O      141.125     520.107     449.860
  H      141.700     520.044     450.664
  H      139.208     520.872     446.730
  H      139.771     521.305     448.327
  H      138.919     519.800     448.080

 6  7  8  9  10  11  12  13  14  15  26  29  33  34 0
 6-311+G(2d,p)
 ****
 36  38  39  40  41 0
 6-311+G(2d,p)
 ****
 1  2  3  4  5  16  17  18  19  20  21  22  23  24  25 0
 3-21G
 ****
 27  28  30  31  32  35  37  42  43  44  45  46  47 0
 3-21G
 ****
 48  49 0
 3-21G
 ****


