%nproc=1
%NoSave
%Mem=1900MB
#P OB98/GEN NMR

erre ene a

0 1
  C     -399.496     -41.323      48.954
  O     -398.942     -40.145      49.510
  H     -400.536     -41.408      49.279
  H     -398.944     -42.199      49.302
  H     -399.471     -41.271      47.863
  P     -397.417     -39.824      49.128
  C     -397.986     -38.338      47.086
  O     -397.452     -39.573      47.544
  C     -397.283     -37.893      45.806
  O     -398.091     -36.947      45.086
  C     -395.942     -37.206      46.032
  O     -394.914     -38.159      46.248
  C     -395.768     -36.480      44.708
  O     -395.294     -37.402      43.705
  C     -397.206     -36.041      44.376
  N     -398.102     -31.295      42.636
  C     -397.635     -32.403      42.021
  N     -397.380     -33.616      42.555
  C     -397.660     -33.629      43.868
  C     -398.144     -32.576      44.630
  C     -398.377     -31.364      43.958
  N     -398.865     -30.239      44.587
  N     -398.309     -32.959      45.946
  C     -397.981     -34.234      45.964
  N     -397.547     -34.678      44.740
  O     -396.408     -40.800      49.622
  O     -397.266     -38.338      49.706
  H     -394.361     -37.597      43.905
  H     -398.080     -37.828      49.553
  H     -397.438     -32.303      40.958
  H     -398.056     -34.883      46.829
  H     -397.424     -36.141      43.306
  H     -395.036     -35.672      44.769
  H     -396.001     -36.469      46.840
  H     -397.166     -38.777      45.164
  H     -397.880     -37.566      47.857
  H     -398.840     -29.371      44.072
  H     -398.950     -30.257      45.593
  H     -399.053     -38.492      46.897
  P     -393.416     -37.687      46.568
  C     -393.869     -37.786      49.098
  O     -393.459     -36.972      48.005
  O     -392.766     -36.885      45.496
  O     -392.621     -39.042      46.863
  H     -391.719     -38.993      46.495
  H     -393.859     -37.207      49.998
  H     -393.197     -38.613      49.199
  H     -394.859     -38.151      48.919

 6  7  8  9  10  11  12  13  14  15  25  28  32  33  34  35 0
 6-311+G(2d,p)
 ****
 36  39  40 0
 6-311+G(2d,p)
 ****
 1  2  3  4  5  16  17  18  19  20  21  22  23  24 0
 3-21G
 ****
 26  27  29  30  31  37  38  41  42  43  44  45  46  47 0
 3-21G
 ****
 48 0
 3-21G
 ****


