%nproc=1
%NoSave
%Mem=1900MB
#P OB98/GEN NMR

erre ene a

0 1
  C      557.485     119.020     523.868
  O      558.824     119.462     524.008
  H      556.845     119.632     524.520
  H      557.385     117.975     524.175
  H      557.151     119.143     522.836
  P      559.977     118.625     523.276
  C      561.138     120.632     522.126
  O      561.213     119.635     523.134
  C      562.389     121.507     522.155
  O      563.563     120.690     522.294
  C      562.582     122.315     520.887
  O      561.706     123.421     520.843
  C      564.059     122.663     520.988
  O      564.279     123.759     521.879
  C      564.638     121.354     521.582
  N      565.210     120.476     520.562
  C      566.605     120.494     520.449
  O      567.280     121.214     521.181
  N      567.187     119.704     519.478
  C      566.453     118.959     518.716
  N      567.095     118.206     517.787
  C      564.978     118.902     518.814
  C      564.433     119.677     519.749
  O      559.600     117.930     522.000
  O      560.471     117.599     524.402
  H      563.991     123.449     522.761
  H      559.950     116.776     524.361
  H      564.410     118.264     518.156
  H      563.351     119.695     519.882
  H      565.419     121.579     522.320
  H      564.479     122.924     520.019
  H      562.446     121.677     519.999
  H      562.331     122.167     523.032
  H      568.105     118.288     517.748
  H      560.252     121.236     522.342
  H      566.638     117.530     517.191
  H      561.022     120.181     521.136
  P      560.566     123.514     519.714
  C      559.418     125.050     521.450
  O      559.734     124.840     520.072
  O      559.747     122.273     519.531
  O      561.386     123.945     518.404
  H      561.902     123.193     518.040
  H      558.866     125.961     521.555
  H      560.323     125.114     522.018
  H      558.828     124.233     521.809

 6  7  8  9  10  11  12  13  14  15  16  26  30  31  32  33  35 0
 6-311+G(2d,p)
 ****
 37  38 0
 6-311+G(2d,p)
 ****
 1  2  3  4  5  17  18  19  20  21  22  23  24  25 0
 3-21G
 ****
 27  28  29  34  36  39  40  41  42  43  44  45  46 0
 3-21G
 ****


