%nproc=1
%NoSave
%Mem=1900MB
#P OB98/GEN NMR

erre ene a

0 1
  C     -280.989     258.517     -68.492
  O     -282.316     258.712     -68.935
  H     -281.004     258.327     -67.416
  H     -280.383     259.407     -68.683
  H     -280.546     257.651     -68.992
  P     -282.557     259.123     -70.464
  C     -282.956     261.637     -70.015
  O     -282.115     260.657     -70.604
  C     -282.919     262.943     -70.820
  O     -281.609     263.557     -70.659
  C     -283.148     262.747     -72.329
  O     -283.772     263.939     -72.824
  C     -281.724     262.638     -72.835
  O     -281.660     262.782     -74.233
  C     -281.042     263.710     -71.980
  N     -279.593     263.582     -71.971
  C     -278.897     264.392     -72.871
  O     -279.505     265.150     -73.626
  N     -277.529     264.300     -72.918
  C     -276.917     263.429     -72.178
  N     -275.564     263.377     -72.283
  C     -277.621     262.512     -71.257
  C     -278.946     262.646     -71.200
  O     -283.906     258.808     -71.016
  O     -281.407     258.342     -71.259
  H     -281.855     263.708     -74.499
  H     -281.790     257.577     -71.727
  H     -277.067     261.789     -70.676
  H     -279.551     262.017     -70.553
  H     -281.302     264.716     -72.333
  H     -281.308     261.652     -72.604
  H     -283.765     261.875     -72.558
  H     -283.652     263.639     -70.397
  H     -275.123     264.016     -72.935
  H     -282.592     261.816     -68.999
  H     -274.983     262.727     -71.774
  H     -283.986     261.269     -69.961
  P     -285.343     264.036     -73.134
  C     -285.368     264.289     -75.700
  O     -285.635     263.435     -74.590
  O     -285.924     265.394     -72.907
  O     -286.025     262.970     -72.150
  H     -286.917     263.283     -71.912
  H     -285.602     263.776     -76.609
  H     -284.333     264.561     -75.700
  H     -285.969     265.171     -75.624

 6  7  8  9  10  11  12  13  14  15  16  26  30  31  32  33  35 0
 6-311+G(2d,p)
 ****
 37  38 0
 6-311+G(2d,p)
 ****
 1  2  3  4  5  17  18  19  20  21  22  23  24  25 0
 3-21G
 ****
 27  28  29  34  36  39  40  41  42  43  44  45  46 0
 3-21G
 ****


