%nproc=1
%NoSave
%Mem=1900MB
#P OB98/GEN NMR

erre ene a

0 1
  C       41.252      -0.764      21.031
  O       41.538      -1.956      20.323
  P       40.960      -3.355      20.843
  C       43.159      -4.069      22.038
  O       42.212      -4.339      21.028
  C       44.471      -4.823      21.784
  O       45.455      -4.332      22.725
  C       44.397      -6.330      22.006
  O       45.510      -6.941      21.351
  C       44.571      -6.431      23.505
  O       44.988      -7.731      23.913
  C       45.575      -5.288      23.804
  N       45.287      -4.641      25.096
  C       45.279      -5.459      26.222
  O       45.572      -6.653      26.184
  N       44.841      -4.878      27.380
  C       44.377      -3.602      27.495
  O       43.712      -3.199      28.442
  C       44.634      -2.727      26.341
  C       45.048      -3.284      25.200
  O       40.210      -3.931      19.553
  O       40.050      -3.262      22.019
  H       44.917      -7.757      24.896
  H       39.257      -3.726      19.598
  H       44.699      -5.508      28.161
  H       44.420      -1.672      26.442
  H       45.196      -2.671      24.316
  H       46.606      -5.659      23.833
  H       43.611      -6.224      23.992
  H       43.462      -6.788      21.672
  H       44.828      -4.599      20.772
  H       42.739      -4.344      23.010
  H       43.370      -2.995      22.084
  P       45.206      -8.034      20.218
  C       45.834      -9.886      21.881
  O       46.066      -9.332      20.602
  O       45.340      -7.569      18.807
  O       43.706      -8.493      20.553
  H       43.313      -8.924      19.773
  H       46.033     -10.961      21.841
  H       44.803      -9.728      22.206
  H       46.516      -9.426      22.601
  H       41.719       0.064      20.539
  H       41.628      -0.843      22.030
  H       40.193      -0.611      21.059

 3  4  5  6  7  8  9  10  11  12  13  23  28  29  30  31  32 0
 6-311+G(2d,p)
 ****
 33  34 0
 6-311+G(2d,p)
 ****
 1  2  14  15  16  17  18  19  20  21  22  24  25  26  27 0
 3-21G
 ****
 35  36  37  38  39  40  41  42  43  44  45 0
 3-21G
 ****


