%nproc=1
%NoSave
%Mem=1900MB
#P OB98/GEN NMR

erre ene a

0 1
  C        5.595      12.578       5.285
  O        5.037      11.289       5.438
  H        4.799      13.273       5.006
  H        6.353      12.575       4.497
  H        6.038      12.908       6.228
  P        6.056      10.104       5.795
  C        5.916       8.926       3.506
  O        6.717       9.707       4.385
  C        6.800       8.130       2.546
  O        5.945       7.445       1.593
  C        7.776       9.000       1.747
  O        8.997       8.282       1.561
  C        7.081       9.158       0.406
  O        7.991       9.471      -0.643
  C        6.385       7.805       0.273
  N        5.049       9.037      -4.481
  C        6.253       8.902      -3.887
  N        6.519       8.544      -2.613
  C        5.381       8.260      -1.953
  C        4.085       8.351      -2.424
  C        3.936       8.773      -3.757
  N        2.714       8.947      -4.363
  N        3.187       8.021      -1.429
  C        3.930       7.725      -0.378
  N        5.262       7.876      -0.644
  O        5.479       8.966       6.568
  O        7.243      10.894       6.521
  H        8.602      10.168      -0.325
  H        7.496      11.694       6.023
  H        7.116       9.117      -4.512
  H        3.553       7.416       0.591
  H        7.058       7.020      -0.097
  H        6.344       9.968       0.463
  H        7.980       9.961       2.220
  H        7.329       7.355       3.113
  H        5.245       9.575       2.933
  H        2.698       9.250      -5.324
  H        1.871       8.750      -3.844
  H        5.308       8.249       4.116
  P       10.258       8.637       2.484
  C       11.491      10.282       0.932
  O       10.750      10.125       2.134
  O       11.338       7.610       2.526
  O        9.593       8.828       3.932
  H       10.167       8.410       4.604
  H       11.760      11.311       0.811
  H       10.894       9.969       0.101
  H       12.378       9.685       0.979

 6  7  8  9  10  11  12  13  14  15  25  28  32  33  34  35 0
 6-311+G(2d,p)
 ****
 36  39  40 0
 6-311+G(2d,p)
 ****
 1  2  3  4  5  16  17  18  19  20  21  22  23  24 0
 3-21G
 ****
 26  27  29  30  31  37  38  41  42  43  44  45  46  47 0
 3-21G
 ****
 48 0
 3-21G
 ****


