%nproc=1
%NoSave
%Mem=1900MB
#P OB98/GEN NMR

erre ene a

0 1
  C     -536.637    -246.349    -385.059
  O     -536.392    -247.297    -386.084
  H     -537.591    -246.586    -384.585
  H     -536.696    -245.344    -385.489
  H     -535.842    -246.389    -384.305
  P     -534.959    -247.233    -386.797
  C     -535.819    -249.276    -388.210
  O     -535.080    -248.060    -388.170
  C     -536.059    -249.686    -389.662
  O     -534.861    -249.563    -390.451
  C     -536.451    -251.151    -389.826
  O     -537.753    -251.427    -389.365
  C     -536.271    -251.316    -391.327
  O     -537.395    -250.773    -392.044
  C     -535.001    -250.465    -391.584
  N     -533.814    -251.279    -391.769
  C     -533.300    -251.309    -393.075
  O     -533.847    -250.666    -393.971
  N     -532.208    -252.093    -393.337
  C     -531.651    -252.763    -392.371
  N     -530.571    -253.534    -392.699
  C     -532.135    -252.740    -390.982
  C     -533.212    -251.995    -390.755
  O     -534.069    -248.196    -385.880
  O     -534.397    -245.863    -386.980
  H     -537.199    -250.904    -392.990
  H     -534.454    -249.080    -385.757
  H     -531.637    -253.311    -390.207
  H     -533.639    -251.914    -389.764
  H     -535.130    -249.833    -392.474
  H     -536.185    -252.362    -391.622
  H     -535.715    -251.797    -389.330
  H     -536.819    -249.020    -390.083
  H     -530.277    -253.543    -393.663
  H     -536.767    -249.176    -387.676
  H     -530.080    -254.122    -392.039
  H     -535.221    -250.037    -387.695
  P     -538.113    -252.850    -388.740
  C     -540.470    -251.874    -388.432
  O     -539.711    -252.999    -388.847
  O     -537.555    -253.111    -387.372
  O     -537.603    -253.887    -389.851
  H     -538.024    -253.779    -390.721
  H     -541.513    -252.085    -388.546
  H     -540.210    -251.027    -389.032
  H     -540.260    -251.661    -387.405

 6  7  8  9  10  11  12  13  14  15  16  26  30  31  32  33  35 0
 6-311+G(2d,p)
 ****
 37  38 0
 6-311+G(2d,p)
 ****
 1  2  3  4  5  17  18  19  20  21  22  23  24  25 0
 3-21G
 ****
 27  28  29  34  36  39  40  41  42  43  44  45  46 0
 3-21G
 ****


