%nproc=1
%NoSave
%Mem=1900MB
#P OB98/GEN NMR

erre ene a

0 1
  C      355.793    -184.609    -543.504
  O      356.195    -183.766    -542.439
  P      355.345    -182.422    -542.195
  C      357.012    -181.663    -540.353
  O      356.367    -181.347    -541.580
  C      358.253    -180.796    -540.135
  O      359.291    -181.216    -541.054
  C      358.011    -179.300    -540.344
  O      358.799    -178.591    -539.384
  C      358.576    -179.041    -541.726
  O      358.956    -177.676    -541.897
  C      359.738    -180.047    -541.770
  N      360.136    -180.377    -543.135
  C      361.066    -179.527    -543.747
  O      361.453    -178.516    -543.164
  N      361.495    -179.819    -545.018
  C      360.959    -180.811    -545.664
  N      361.415    -181.061    -546.923
  C      359.881    -181.656    -545.102
  C      359.543    -181.396    -543.843
  O      354.416    -182.807    -540.955
  O      354.554    -181.965    -543.378
  H      358.138    -177.129    -541.891
  H      353.556    -182.345    -541.006
  H      359.447    -182.444    -545.698
  H      358.778    -181.980    -543.340
  H      360.615    -179.650    -541.243
  H      357.827    -179.288    -542.489
  H      356.959    -179.019    -540.241
  H      358.627    -180.981    -539.117
  H      362.143    -180.460    -547.288
  H      357.329    -182.713    -540.380
  H      361.060    -181.811    -547.498
  H      356.305    -181.542    -539.527
  P      358.036    -177.944    -538.128
  C      359.902    -178.257    -536.391
  O      359.199    -177.341    -537.202
  O      357.617    -179.258    -537.300
  O      356.853    -177.072    -538.389
  H      357.081    -178.997    -536.527
  H      360.742    -177.744    -535.922
  H      360.280    -179.091    -536.993
  H      359.242    -178.642    -535.600
  H      356.441    -185.459    -543.550
  H      355.847    -184.069    -544.426
  H      354.787    -184.936    -543.340

 3  4  5  6  7  8  9  10  11  12  13  21  23  27  28  29  30  32 0
 6-311+G(2d,p)
 ****
 34  35 0
 6-311+G(2d,p)
 ****
 1  2  14  15  16  17  18  19  20  22  24  25  26 0
 3-21G
 ****
 31  33  36  37  38  39  40  41  42  43  44  45  46 0
 3-21G
 ****


