%nproc=1
%NoSave
%Mem=1900MB
#P OB98/GEN NMR

erre ene a

0 1
  C      -39.428      37.153    -899.330
  O      -39.937      37.875    -898.220
  H      -38.764      36.356    -898.980
  H      -40.265      36.699    -899.870
  H      -38.894      37.827    -900.000
  P      -38.868      38.644    -897.290
  C      -38.473      40.892    -898.540
  O      -39.154      40.213    -897.500
  C      -39.166      42.210    -898.840
  O      -40.456      41.977    -899.430
  C      -39.428      43.073    -897.610
  O      -38.278      43.802    -897.210
  C      -40.516      43.998    -898.150
  O      -39.922      45.012    -898.980
  C      -41.358      43.030    -898.990
  N      -46.438      42.999    -898.370
  C      -45.636      43.726    -899.160
  N      -44.286      43.681    -899.270
  C      -43.783      42.760    -898.440
  C      -44.480      41.933    -897.570
  C      -45.874      42.083    -897.550
  N      -46.706      41.359    -896.730
  N      -43.616      41.142    -896.840
  C      -42.413      41.452    -897.300
  N      -42.464      42.437    -898.260
  O      -37.479      38.420    -898.070
  O      -38.813      38.195    -895.880
  H      -39.062      45.241    -898.570
  H      -36.732      38.553    -897.450
  H      -46.136      44.459    -899.820
  H      -41.484      41.001    -896.960
  H      -41.769      43.513    -899.880
  H      -41.066      44.510    -897.350
  H      -39.833      42.469    -896.780
  H      -38.548      42.762    -899.580
  H      -38.477      40.268    -899.440
  H      -47.656      41.653    -896.670
  H      -46.288      40.790    -896.000
  H      -37.425      41.056    -898.240
  P      -37.973      43.906    -895.640
  C      -35.788      42.518    -895.900
  O      -36.386      43.734    -895.490
  O      -38.533      42.516    -895.060
  O      -38.567      45.087    -894.960
  H      -38.798      42.601    -894.130
  H      -34.732      42.566    -895.734
  H      -35.979      42.360    -896.941
  H      -36.201      41.709    -895.335

 6  7  8  9  10  11  12  13  14  15  25  28  32  33  34  35 0
 6-311+G(2d,p)
 ****
 36  39  40 0
 6-311+G(2d,p)
 ****
 1  2  3  4  5  16  17  18  19  20  21  22  23  24 0
 3-21G
 ****
 26  27  29  30  31  37  38  41  42  43  44  45  46  47 0
 3-21G
 ****
 48 0
 3-21G
 ****


