%nproc=1
%NoSave
%Mem=1900MB
#P OB98/GEN NMR

erre ene a

0 1
  C     -179.382     -64.120     164.476
  O     -178.744     -64.919     163.500
  H     -178.881     -63.149     164.515
  H     -179.321     -64.585     165.464
  H     -180.430     -63.961     164.204
  P     -179.128     -66.477     163.431
  C     -179.801     -68.091     161.530
  O     -179.243     -66.822     161.865
  C     -179.533     -68.437     160.062
  O     -180.084     -67.417     159.204
  C     -178.057     -68.502     159.708
  O     -177.373     -69.596     160.280
  C     -178.076     -68.334     158.195
  O     -178.270     -69.557     157.492
  C     -179.303     -67.413     157.991
  N     -178.916     -66.063     157.599
  C     -179.257     -65.689     156.303
  O     -179.830     -66.435     155.508
  N     -178.879     -64.429     155.928
  C     -178.164     -63.550     156.687
  O     -177.819     -62.449     156.277
  C     -177.808     -64.013     158.039
  C     -178.194     -65.230     158.428
  O     -180.327     -66.888     164.231
  O     -177.780     -67.220     163.865
  H     -177.484     -70.113     157.659
  H     -177.956     -68.158     164.118
  H     -179.127     -64.136     154.996
  H     -177.239     -63.342     158.669
  H     -177.944     -65.595     159.421
  H     -179.953     -67.817     157.205
  H     -177.143     -67.900     157.829
  H     -177.572     -67.603     160.109
  H     -180.038     -69.383     159.834
  H     -180.882     -68.033     161.694
  H     -179.384     -68.861     162.186
  P     -175.801     -69.830     160.118
  C     -174.057     -71.613     160.847
  O     -175.405     -71.166     160.922
  O     -174.924     -68.627     160.252
  O     -175.712     -70.322     158.582
  H     -174.871     -69.987     158.216
  H     -173.944     -72.505     161.427
  H     -173.408     -70.854     161.231
  H     -173.805     -71.816     159.827

 6  7  8  9  10  11  12  13  14  15  16  26  31  32  33  34  35 0
 6-311+G(2d,p)
 ****
 36  37 0
 6-311+G(2d,p)
 ****
 1  2  3  4  5  17  18  19  20  21  22  23  24  25 0
 3-21G
 ****
 27  28  29  30  38  39  40  41  42  43  44  45 0
 3-21G
 ****


