%nproc=1
%NoSave
%Mem=1900MB
#P OB98/GEN NMR

erre ene a

0 1
  C      129.908      58.533      45.163
  O      130.260      57.372      44.439
  H      129.031      58.313      45.777
  H      129.660      59.346      44.475
  H      130.730      58.838      45.817
  P      131.558      57.474      43.501
  C      130.033      57.515      41.396
  O      131.123      56.897      42.069
  C      129.229      56.462      40.640
  O      128.089      57.088      40.008
  C      129.997      55.778      39.513
  O      130.863      54.768      39.999
  C      128.854      55.241      38.661
  O      128.366      53.990      39.163
  C      127.780      56.324      38.821
  N      125.884      56.829      34.118
  C      125.727      55.871      35.057
  N      126.255      55.821      36.300
  C      127.007      56.909      36.536
  C      127.264      57.961      35.675
  C      126.660      57.899      34.409
  N      126.849      58.856      33.440
  N      128.122      58.870      36.263
  C      128.369      58.380      37.461
  N      127.713      57.201      37.670
  O      132.516      56.335      44.094
  O      132.223      58.809      43.476
  H      129.075      53.335      39.016
  H      133.135      56.730      44.735
  H      125.097      55.032      34.772
  H      129.017      58.834      38.201
  H      126.780      55.898      38.963
  H      129.171      55.074      37.631
  H      130.554      56.521      38.930
  H      128.855      55.723      41.360
  H      130.419      58.253      40.684
  H      129.404      58.025      42.133
  H      126.403      58.735      32.545
  H      127.510      59.602      33.609
  P      132.398      54.797      39.549
  C      132.156      52.701      38.031
  O      132.812      53.303      39.134
  O      133.179      55.040      40.924
  O      132.730      55.834      38.528
  H      133.435      55.977      41.010
  H      132.541      51.714      37.883
  H      132.327      53.286      37.152
  H      131.105      52.649      38.226

 6  7  8  9  10  11  12  13  14  15  25  28  32  33  34  35 0
 6-311+G(2d,p)
 ****
 36  37  40 0
 6-311+G(2d,p)
 ****
 1  2  3  4  5  16  17  18  19  20  21  22  23  24 0
 3-21G
 ****
 26  27  29  30  31  38  39 41  42  43  44  45  46  47  48 0
 3-21G
 ****


