%nproc=1
%NoSave
%Mem=1900MB
#P OB98/GEN NMR

erre ene a

0 1
  C      638.093     -59.324    -360.750
  O      638.496     -60.600    -360.283
  H      638.830     -58.586    -360.428
  H      637.119     -59.063    -360.328
  H      638.042     -59.321    -361.844
  P      637.546     -61.831    -360.669
  C      638.985     -62.294    -362.795
  O      637.699     -62.031    -362.255
  C      638.976     -63.617    -363.571
  O      638.002     -63.520    -364.653
  C      640.325     -63.964    -364.221
  O      640.417     -65.399    -364.305
  C      640.156     -63.384    -365.613
  O      641.151     -63.870    -366.487
  C      638.713     -63.787    -365.883
  N      635.910     -64.261    -370.132
  C      636.289     -65.161    -369.203
  N      637.026     -64.957    -368.090
  C      637.352     -63.663    -367.967
  C      637.032     -62.626    -368.829
  C      636.271     -62.968    -369.964
  N      635.887     -62.052    -370.919
  N      637.554     -61.430    -368.376
  C      638.183     -61.743    -367.254
  N      638.095     -63.078    -366.979
  O      636.073     -61.230    -360.500
  O      637.741     -63.070    -359.860
  H      642.009     -63.428    -366.318
  H      635.724     -61.448    -359.616
  H      635.963     -66.186    -369.376
  H      638.716     -61.044    -366.621
  H      638.618     -64.860    -366.087
  H      640.264     -62.293    -365.596
  H      641.189     -63.578    -363.668
  H      638.630     -64.420    -362.909
  H      639.705     -62.354    -361.969
  H      639.274     -61.480    -363.465
  H      635.359     -62.381    -371.710
  H      636.168     -61.088    -370.811
  P      641.112     -66.213    -363.102
  C      639.084     -66.143    -361.452
  O      640.427     -65.771    -361.723
  O      642.544     -65.505    -363.004
  O      641.267     -67.681    -363.319
  H      643.201     -66.134    -362.661
  H      638.796     -65.765    -360.494
  H      639.002     -67.210    -361.454
  H      638.442     -65.735    -362.205

 6  7  8  9  10  11  12  13  14  15  25  28  32  33  34  35 0
 6-311+G(2d,p)
 ****
 36  37  40 0
 6-311+G(2d,p)
 ****
 1  2  3  4  5  16  17  18  19  20  21  22  23  24 0
 3-21G
 ****
 26  27  29  30  31  38  39 41  42  43  44  45  46  47  48 0
 3-21G
 ****


