%nproc=1
%NoSave
%Mem=1900MB
#P OB98/GEN NMR

erre ene a

0 1
  C      390.789    -895.670    -663.876
  O      389.512    -895.020    -663.768
  P      388.979    -894.120    -664.987
  C      386.514    -894.940    -664.680
  O      387.626    -894.780    -665.545
  C      385.246    -895.280    -665.476
  O      384.928    -894.210    -666.394
  C      385.388    -896.530    -666.354
  O      385.283    -897.720    -665.580
  C      384.237    -896.340    -667.329
  O      382.982    -896.770    -666.749
  C      384.227    -894.790    -667.522
  N      384.806    -894.390    -668.803
  C      383.918    -894.060    -669.809
  O      382.694    -894.140    -669.677
  N      384.486    -893.640    -670.992
  C      385.812    -893.610    -671.279
  O      386.255    -893.260    -672.357
  C      386.713    -894.070    -670.196
  C      386.180    -894.430    -669.038
  O      390.029    -894.500    -666.147
  O      388.948    -892.660    -664.749
  H      383.038    -897.740    -666.655
  H      390.092    -893.740    -666.772
  H      383.840    -893.380    -671.724
  H      387.769    -894.080    -670.389
  H      386.819    -894.780    -668.225
  H      383.202    -894.410    -667.472
  H      384.378    -896.900    -668.256
  H      386.333    -896.500    -666.885
  H      384.417    -895.370    -664.772
  H      386.342    -894.000    -664.126
  H      386.726    -895.730    -663.942
  P      386.638    -898.510    -665.295
  C      386.422    -898.120    -662.721
  O      387.183    -897.960    -663.896
  O      387.606    -897.880    -666.409
  O      386.459    -900.000    -665.404
  H      387.403    -896.930    -666.576
  H      385.858    -899.040    -662.728
  H      385.741    -897.260    -662.624
  H      387.106    -898.120    -661.877
  H      390.985    -896.223    -662.981
  H      391.553    -894.934    -664.015
  H      390.780    -896.337    -664.713

 3  4  5  6  7  8  9  10  11  12  13  23  28  29  30  31  32 0
 6-311+G(2d,p)
 ****
 33  34 0
 6-311+G(2d,p)
 ****
 1  2  14  15  16  17  18  19  20  21  22  24  25  26 0
 3-21G
 ****
 27  35  36  37  38  39  40  41  42  43  44  45 0
 3-21G
 ****


