%nproc=1
%NoSave
%Mem=1900MB
#P OB98/GEN NMR

erre ene a

0 1
  C      427.438    -330.706     -99.025
  O      426.168    -330.720     -99.640
  P      425.052    -329.607     -99.372
  C      424.262    -328.296     -97.277
  O      424.810    -329.500     -97.786
  C      423.737    -328.430     -95.836
  O      424.850    -328.634     -94.943
  C      423.059    -327.129     -95.393
  O      421.709    -326.882     -95.738
  C      423.373    -327.001     -93.911
  O      422.307    -327.459     -93.077
  C      424.611    -327.895     -93.733
  N      427.029    -325.207     -90.176
  C      425.923    -326.030     -90.049
  N      425.286    -325.975     -88.854
  N      425.488    -326.812     -91.000
  C      426.176    -326.685     -92.163
  C      427.290    -325.914     -92.404
  C      427.788    -325.083     -91.331
  O      428.706    -324.276     -91.434
  N      427.673    -325.976     -93.721
  C      426.775    -326.758     -94.284
  N      425.819    -327.177     -93.383
  O      423.863    -329.620    -100.278
  O      425.878    -328.252     -99.684
  H      421.517    -326.915     -93.276
  H      425.254    -327.609    -100.076
  H      427.274    -324.563     -89.432
  H      426.743    -327.019     -95.339
  H      424.438    -328.638     -92.941
  H      423.551    -325.955     -93.641
  H      425.503    -325.282     -88.160
  H      423.608    -326.307     -95.873
  H      424.384    -326.432     -88.787
  H      423.103    -329.317     -95.728
  H      423.449    -327.991     -97.950
  H      425.012    -327.502     -97.309
  P      420.984    -325.452     -95.761
  C      420.672    -323.466     -94.182
  O      421.059    -324.820     -94.292
  O      419.428    -325.802     -95.918
  O      421.427    -324.539     -96.864
  H      418.949    -325.031     -96.288
  H      421.042    -323.061     -93.236
  H      419.579    -323.391     -94.194
  H      421.086    -322.869     -95.009
  H      428.006    -331.549     -99.360
  H      427.320    -330.755     -97.963
  H      427.951    -329.804     -99.286

 3  4  5  6  7  8  9  10  11  12  23  26  30  31 0
 6-311+G(2d,p)
 ****
 33  35  36  37  38 0
 6-311+G(2d,p)
 ****
 1  2  13  14  15  16  17  18  19  20  21  22  24  25 0
 3-21G
 ****
 27  28  29  32  34  39  40  41  42  43  44  45  46  47  48  49 0
 3-21G
 ****


