%nproc=1
%NoSave
%Mem=1900MB
#P OB98/GEN NMR

erre ene a

0 1
  C     -698.798     715.312     -38.959
  O     -697.407     715.012     -38.979
  P     -696.905     713.785     -38.096
  C     -696.708     714.976     -35.804
  O     -697.435     714.059     -36.606
  C     -696.956     714.710     -34.325
  O     -698.328     714.973     -34.002
  C     -696.698     713.260     -33.887
  O     -695.317     713.009     -33.673
  C     -697.481     713.210     -32.589
  O     -696.685     713.770     -31.523
  C     -698.685     714.121     -32.882
  N     -703.636     713.531     -31.935
  C     -702.728     714.419     -31.403
  N     -703.215     715.291     -30.492
  N     -701.469     714.432     -31.701
  C     -701.136     713.537     -32.658
  C     -701.938     712.611     -33.276
  C     -703.323     712.548     -32.878
  O     -704.156     711.742     -33.284
  N     -701.228     711.875     -34.205
  C     -700.022     712.388     -34.173
  N     -699.897     713.388     -33.231
  O     -695.325     714.041     -37.975
  O     -697.205     712.431     -38.662
  H     -695.979     713.143     -31.316
  H     -694.859     713.193     -37.817
  H     -704.615     713.568     -31.685
  H     -699.201     712.066     -34.818
  H     -698.920     714.774     -32.035
  H     -697.733     712.197     -32.280
  H     -704.202     715.404     -30.296
  H     -697.138     712.559     -34.614
  H     -702.584     715.975     -30.088
  H     -696.327     715.410     -33.737
  H     -697.022     716.006     -36.036
  H     -695.641     714.885     -36.038
  P     -694.749     711.599     -34.191
  C     -694.946     710.151     -32.040
  O     -695.500     710.493     -33.293
  O     -693.243     711.587     -33.656
  O     -694.839     711.411     -35.676
  H     -692.701     711.012     -34.209
  H     -694.490     711.015     -31.547
  H     -694.184     709.372     -32.183
  H     -695.739     709.751     -31.394
  H     -698.991     716.153     -39.592
  H     -699.099     715.543     -37.958
  H     -699.350     714.466     -39.311

 3  4  5  6  7  8  9  10  11  12  23  26  30  31  33  0
 6-311+G(2d,p)
 ****
 35  36  37  38 0
 6-311+G(2d,p)
 ****
 1  2  13  14  15  16  17  18  19  20  21  22  24  25  27  28  29 0
 3-21G
 ****
 32  34  39  40  41  42  43  44  45  46  47  48  49 0
 3-21G
 ****


