%nproc=1
%NoSave
%Mem=1900MB
#P OB98/GEN NMR

erre ene a

0 1
  C       41.268      18.829      12.278
  O       42.161      17.935      12.909
  H       41.249      19.764      12.843
  H       40.257      18.416      12.253
  H       41.607      19.044      11.261
  P       42.255      16.429      12.371
  C       44.815      16.713      12.373
  O       43.718      15.897      12.763
  C       46.135      16.114      12.860
  O       46.088      16.010      14.308
  C       46.424      14.721      12.291
  O       47.829      14.617      12.047
  C       46.012      13.807      13.426
  O       46.662      12.554      13.347
  C       46.360      14.642      14.662
  N       45.586      14.213      15.826
  C       46.085      13.118      16.539
  O       47.133      12.575      16.187
  N       45.357      12.621      17.588
  C       44.202      13.134      17.870
  N       43.514      12.568      18.897
  C       43.622      14.271      17.128
  C       44.360      14.757      16.131
  O       41.875      16.215      10.945
  O       41.297      15.615      13.362
  H       46.385      11.995      14.105
  H       40.390      15.586      13.002
  H       42.651      14.659      17.399
  H       44.009      15.585      15.524
  H       47.428      14.560      14.900
  H       44.930      13.629      13.382
  H       45.868      14.510      11.373
  H       46.945      16.813      12.618
  H       43.940      11.774      19.360
  H       44.673      17.702      12.820
  H       42.589      12.853      19.181
  H       44.830      16.817      11.283
  P       48.377      13.891      10.726
  C       49.921      15.861      10.193
  O       49.845      14.453      10.390
  O       47.431      13.896       9.570
  O       48.663      12.387      11.208
  H       48.536      11.779      10.456
  H       50.932      16.137       9.976
  H       49.597      16.363      11.080
  H       49.291      16.141       9.374

 6  7  8  9  10  11  12  13  14  15  16  26  30  31  32  33  35 0
 6-311+G(2d,p)
 ****
 37  38 0
 6-311+G(2d,p)
 ****
 1  2  3  4  5  17  18  19  20  21  22  23  24  25 0
 3-21G
 ****
 27  28  29  34  36  39  40  41  42  43  44  45  46 0
 3-21G
 ****


