%nproc=1
%NoSave
%Mem=1900MB
#P OB98/GEN NMR

erre ene a

0 1
  C      269.787     378.054     -89.999
  O      270.323     376.784     -89.675
  H      270.413     378.824     -89.540
  H      268.769     378.140     -89.601
  H      269.779     378.200     -91.084
  P      269.656     375.514     -90.391
  C      267.988     374.959     -88.439
  O      268.171     375.354     -89.792
  C      266.554     375.241     -88.000
  O      266.186     376.612     -88.255
  C      265.509     374.440     -88.760
  O      265.508     373.077     -88.419
  C      264.241     375.184     -88.358
  O      263.810     374.790     -87.047
  C      264.736     376.651     -88.354
  N      264.298     377.392     -89.533
  C      262.972     377.856     -89.501
  O      262.264     377.637     -88.518
  N      262.484     378.522     -90.595
  C      263.253     378.733     -91.618
  N      262.710     379.393     -92.677
  C      264.659     378.283     -91.686
  C      265.108     377.625     -90.619
  O      270.439     374.288     -89.727
  O      269.687     375.533     -91.886
  H      263.076     375.389     -86.810
  H      270.423     374.295     -88.754
  H      265.266     378.492     -92.558
  H      266.128     377.264     -90.585
  H      264.371     377.179     -87.465
  H      263.411     374.981     -89.042
  H      265.646     374.574     -89.845
  H      266.486     375.067     -86.919
  H      261.733     379.662     -92.606
  H      268.700     375.473     -87.782
  H      263.199     379.581     -93.540
  H      268.197     373.888     -88.374
  P      264.878     371.981     -89.407
  C      262.496     372.396     -88.527
  O      263.351     372.428     -89.657
  O      265.044     370.566     -88.984
  O      265.564     372.326     -90.815
  H      265.395     373.225     -91.148
  H      261.514     372.711     -88.813
  H      262.876     373.054     -87.773
  H      262.452     371.399     -88.141

 6  7  8  9  10  11  12  13  14  15  16  26  30  31  32  33  35 0
 6-311+G(2d,p)
 ****
 37  38 0
 6-311+G(2d,p)
 ****
 1  2  3  4  5  17  18  19  20  21  22  23  24  25 0
 3-21G
 ****
 27  28  29  34  36  39  40  41  42  43  44  45  46 0
 3-21G
 ****


