%nproc=1
%NoSave
%Mem=1900MB
#P OB98/GEN NMR

erre ene a

0 1
  C      317.232    -527.080    -537.450
  O      316.513    -528.301    -537.404
  P      316.478    -529.201    -538.732
  C      317.010    -531.273    -537.259
  O      316.209    -530.724    -538.296
  C      317.429    -532.695    -537.597
  O      316.272    -533.596    -537.468
  C      317.972    -532.872    -539.029
  O      319.000    -533.887    -539.028
  C      316.793    -533.420    -539.795
  O      317.207    -534.125    -540.964
  C      316.130    -534.294    -538.725
  N      312.865    -536.205    -542.070
  C      314.234    -536.353    -541.999
  N      314.812    -537.044    -543.014
  N      314.961    -535.892    -541.026
  C      314.251    -535.219    -540.087
  C      312.884    -535.018    -540.042
  C      312.092    -535.534    -541.134
  O      310.878    -535.416    -541.267
  N      312.520    -534.329    -538.910
  C      313.653    -534.067    -538.305
  N      314.733    -534.561    -538.992
  O      318.016    -529.220    -539.198
  O      315.589    -528.677    -539.821
  H      317.766    -534.859    -540.663
  H      318.129    -528.625    -539.975
  H      312.338    -536.580    -542.846
  H      313.768    -533.515    -537.371
  H      316.646    -535.259    -538.630
  H      316.145    -532.601    -540.098
  H      314.311    -537.364    -543.829
  H      318.370    -531.947    -539.471
  H      315.826    -537.116    -543.017
  H      318.171    -533.038    -536.860
  H      316.457    -531.277    -536.323
  H      317.903    -530.646    -537.119
  P      320.148    -533.716    -540.153
  C      321.558    -535.389    -538.734
  O      321.081    -535.005    -540.012
  O      321.048    -532.523    -539.580
  O      319.624    -533.433    -541.519
  H      321.508    -532.068    -540.299
  H      321.152    -536.367    -538.478
  H      321.279    -534.664    -537.957
  H      322.653    -535.437    -538.776
  H      317.167    -526.592    -536.500
  H      316.813    -526.448    -538.205
  H      318.258    -527.279    -537.680

 3  4  5  6  7  8  9  10  11  12  23  26  30  31 0
 6-311+G(2d,p)
 ****
 33  35  36  37  38 0
 6-311+G(2d,p)
 ****
 1  2  13  14  15  16  17  18  19  20  21  22  24  25 0
 3-21G
 ****
 27  28  29  32  34  39  40  41  42  43  44  45  46  47  48  49 0
 3-21G
 ****


