%nproc=1
%NoSave
%Mem=1900MB
#P OB98/GEN NMR

erre ene a

0 1
  C     -327.239    -203.641     349.791
  O     -326.071    -203.986     349.071
  H     -326.972    -202.920     350.567
  H     -327.669    -204.527     350.264
  H     -327.969    -203.180     349.119
  P     -326.244    -205.068     347.899
  C     -327.802    -203.361     346.732
  O     -327.642    -204.689     347.209
  C     -328.661    -203.346     345.471
  O     -327.947    -203.941     344.375
  C     -329.972    -204.114     345.595
  O     -330.963    -203.308     346.210
  C     -330.295    -204.373     344.131
  O     -330.899    -203.198     343.555
  C     -328.906    -204.604     343.512
  N     -329.121    -208.757     340.502
  C     -329.767    -207.573     340.441
  N     -329.704    -206.536     341.304
  C     -328.857    -206.806     342.312
  C     -328.130    -207.971     342.505
  C     -328.281    -208.977     341.538
  N     -327.620    -210.184     341.602
  N     -327.371    -207.892     343.654
  C     -327.591    -206.677     344.112
  N     -328.510    -205.991     343.356
  O     -326.072    -206.493     348.304
  O     -325.177    -204.531     346.830
  H     -331.753    -203.070     344.006
  H     -325.204    -203.560     346.779
  H     -330.425    -207.440     339.589
  H     -327.096    -206.236     344.971
  H     -328.823    -204.146     342.518
  H     -331.001    -205.193     343.993
  H     -329.834    -205.073     346.107
  H     -328.848    -202.297     345.205
  H     -326.822    -202.916     346.517
  H     -327.931    -210.915     340.982
  H     -327.100    -210.396     342.441
  H     -328.280    -202.779     347.526
  P     -332.346    -203.940     346.718
  C     -331.601    -203.660     349.163
  O     -332.010    -204.575     348.151
  O     -333.004    -204.853     345.742
  O     -333.247    -202.673     347.089
  H     -334.186    -202.936     347.155
  H     -331.405    -204.194     350.069
  H     -332.378    -202.944     349.332
  H     -330.712    -203.154     348.848

 6  7  8  9  10  11  12  13  14  15  25  28  32  33  34  35 0
 6-311+G(2d,p)
 ****
 36  39  40 0
 6-311+G(2d,p)
 ****
 1  2  3  4  5  16  17  18  19  20  21  22  23  24 0
 3-21G
 ****
 26  27  29  30  31  37  38  41  42  43  44  45  46  47 0
 3-21G
 ****
 48 0
 3-21G
 ****


