%nproc=1
%NoSave
%Mem=1900MB
#P OB98/GEN NMR

erre ene a

0 1
  C     -478.554    -760.368      69.715
  O     -479.382    -760.354      68.573
  H     -478.118    -761.364      69.825
  H     -479.151    -760.149      70.604
  H     -477.743    -759.638      69.622
  P     -479.875    -758.924      68.046
  C     -479.407    -758.760      65.503
  O     -480.333    -759.114      66.518
  C     -478.481    -759.938      65.193
  O     -479.290    -761.085      64.828
  C     -477.500    -759.673      64.043
  O     -476.245    -760.275      64.352
  C     -478.139    -760.391      62.865
  O     -477.185    -760.766      61.873
  C     -478.810    -761.572      63.562
  N     -480.158    -765.361      60.524
  C     -478.998    -765.166      61.246
  N     -478.050    -766.121      61.141
  N     -478.786    -764.123      62.008
  C     -479.836    -763.268      62.048
  C     -481.034    -763.345      61.375
  C     -481.243    -764.488      60.512
  O     -482.240    -764.705      59.830
  N     -481.828    -762.261      61.649
  C     -481.113    -761.531      62.488
  N     -479.901    -762.102      62.762
  O     -478.514    -758.090      67.926
  O     -480.864    -758.227      68.918
  H     -476.588    -761.431      62.276
  H     -478.526    -757.345      68.557
  H     -480.265    -766.172      59.942
  H     -481.417    -760.586      62.914
  H     -478.113    -762.394      63.750
  H     -478.881    -759.738      62.391
  H     -478.166    -766.969      60.615
  H     -477.357    -758.607      63.840
  H     -477.206    -766.020      61.693
  H     -477.942    -760.206      66.108
  H     -478.809    -757.910      65.845
  H     -479.953    -758.472      64.599
  P     -475.038    -759.289      64.733
  C     -473.757    -761.196      65.925
  O     -473.714    -760.169      64.943
  O     -475.411    -758.806      66.212
  O     -474.893    -758.129      63.804
  H     -475.705    -757.876      66.196
  H     -472.813    -761.698      65.957
  H     -474.526    -761.897      65.674
  H     -473.965    -760.766      66.882

 6  7  8  9  10  11  12  13  14  15  26  29  33  34 0
 6-311+G(2d,p)
 ****
 36  38  39  40  41 0
 6-311+G(2d,p)
 ****
 1  2  3  4  5  16  17  18  19  20  21  22  23  24  25 0
 3-21G
 ****
 27  28  30  31  32  35  37  42  43  44  45  46  47 0
 3-21G
 ****
 48  49 0
 3-21G
 ****


