%nproc=1
%NoSave
%Mem=1900MB
#P OB98/GEN NMR

erre ene a

0 1
  C     1021.716     446.028    -566.965
  O     1022.387     445.293    -565.961
  H     1022.409     446.205    -567.790
  H     1021.396     446.995    -566.565
  H     1020.858     445.469    -567.332
  P     1021.524     444.896    -564.668
  C     1022.611     442.542    -564.357
  O     1022.420     443.856    -563.834
  C     1023.730     442.540    -565.402
  O     1024.976     442.933    -564.752
  C     1023.968     441.157    -566.055
  O     1024.442     441.371    -567.393
  C     1025.093     440.611    -565.190
  O     1025.717     439.525    -565.844
  C     1025.927     441.882    -565.023
  N     1030.884     442.261    -563.833
  C     1030.192     442.514    -564.972
  N     1028.881     442.394    -565.203
  C     1028.232     441.996    -564.099
  C     1028.781     441.714    -562.858
  C     1030.171     441.854    -562.748
  N     1030.876     441.583    -561.581
  N     1027.806     441.313    -561.970
  C     1026.674     441.369    -562.659
  N     1026.887     441.779    -563.951
  O     1020.354     443.995    -565.277
  O     1020.996     446.044    -563.867
  H     1026.411     439.127    -565.282
  H     1019.574     444.540    -565.472
  H     1030.808     442.846    -565.812
  H     1025.689     441.109    -562.289
  H     1026.474     442.149    -565.935
  H     1024.719     440.253    -564.237
  H     1023.078     440.538    -566.070
  H     1023.511     443.314    -566.162
  H     1021.668     442.205    -564.816
  H     1022.877     441.871    -563.530
  H     1031.869     441.686    -561.596
  H     1030.363     441.234    -560.777
  P     1023.374     441.622    -568.566
  C     1024.514     443.349    -570.168
  O     1024.132     442.001    -569.937
  O     1022.728     443.022    -568.139
  O     1022.305     440.573    -568.689
  H     1021.765     442.975    -568.215
  H     1025.002     443.424    -571.117
  H     1025.184     443.667    -569.397
  H     1023.644     443.972    -570.164

 6  7  8  9  10  11  12  13  14  15  25  28  32  33  34  35 0
 6-311+G(2d,p)
 ****
 36  37  40 0
 6-311+G(2d,p)
 ****
 1  2  3  4  5  16  17  18  19  20  21  22  23  24 0
 3-21G
 ****
 26  27  29  30  31  38  39 41  42  43  44  45  46  47  48 0
 3-21G
 ****


