%nproc=1
%NoSave
%Mem=1900MB
#P OB98/GEN NMR

erre ene a

0 1
  C      197.001      67.982     110.067
  O      195.854      67.457     109.432
  H      197.830      67.977     109.354
  H      197.275      67.366     110.928
  H      196.817      69.009     110.388
  P      194.527      67.320     110.329
  C      194.692      64.730     110.156
  O      194.578      65.865     111.005
  C      193.334      64.409     109.543
  O      193.434      63.226     108.718
  C      192.249      64.096     110.566
  O      191.724      65.270     111.166
  C      191.235      63.369     109.699
  O      190.378      64.291     109.002
  C      192.134      62.595     108.711
  N      192.215      61.173     109.037
  C      191.492      60.324     108.206
  O      190.815      60.720     107.253
  N      191.532      58.993     108.529
  C      192.182      58.448     109.603
  O      192.119      57.253     109.879
  C      192.940      59.397     110.439
  C      192.916      60.695     110.128
  O      193.364      67.195     109.237
  O      194.289      68.445     111.279
  H      192.892      68.044     109.155
  H      190.276      65.062     109.593
  H      191.008      58.360     107.947
  H      193.475      58.994     111.292
  H      193.452      61.415     110.743
  H      191.746      62.687     107.688
  H      190.587      62.724     110.296
  H      192.631      63.400     111.324
  H      193.031      65.251     108.905
  H      195.037      63.870     110.741
  H      195.433      64.944     109.377
  P      190.798      65.117     112.466
  C      188.744      66.230     111.257
  O      189.276      65.113     111.951
  O      190.979      66.555     113.147
  O      191.165      63.959     113.331
  H      191.056      67.272     112.497
  H      187.724      66.037     110.999
  H      189.311      66.399     110.366
  H      188.796      67.096     111.883

 6  7  8  9  10  11  12  13  14  15  16  27  31  32  33  34  35 0
 6-311+G(2d,p)
 ****
 36  37 0
 6-311+G(2d,p)
 ****
 1  2  3  4  5  17  18  19  20  21  22  23  24  25 0
 3-21G
 ****
 26  28  29  30  38  39  40  41  42  43  44  45 0
 3-21G
 ****


