%nproc=1
%NoSave
%Mem=1900MB
#P OB98/GEN NMR

erre ene a

0 1
  C       63.548      52.321      67.655
  O       62.685      52.541      68.758
  P       62.346      54.064      69.141
  C       64.227      54.264      70.922
  O       63.715      54.713      69.673
  C       64.422      55.429      71.894
  O       64.891      54.910      73.162
  C       65.422      56.482      71.414
  O       64.942      57.763      71.825
  C       66.681      56.155      72.194
  O       67.531      57.293      72.325
  C       66.089      55.632      73.513
  N       67.029      54.786      74.242
  C       68.126      55.423      74.829
  O       68.307      56.627      74.654
  N       69.016      54.671      75.555
  C       68.882      53.383      75.599
  N       69.787      52.683      76.334
  C       67.808      52.659      74.890
  C       66.915      53.417      74.256
  O       61.470      53.911      70.470
  O       61.633      54.830      68.075
  H       68.359      57.004      72.770
  H       60.807      54.625      70.533
  H       67.764      51.580      74.928
  H       66.081      52.975      73.728
  H       65.795      56.467      74.162
  H       67.241      55.362      71.683
  H       65.563      56.471      70.329
  H       63.443      55.891      72.074
  H       70.522      53.200      76.798
  H       65.198      53.791      70.758
  H       69.763      51.676      76.424
  H       63.549      53.517      71.345
  P       64.768      58.890      70.698
  C       67.132      59.826      71.050
  O       66.252      59.169      70.159
  O       64.501      60.196      71.593
  O       63.698      58.710      69.674
  H       64.314      60.956      71.013
  H       68.134      59.829      70.613
  H       67.167      59.305      72.009
  H       66.810      60.861      71.196
  H       63.686      51.269      67.514
  H       64.494      52.783      67.845
  H       63.115      52.745      66.773

 3  4  5  6  7  8  9  10  11  12  13  21  23  27  28  29  30  32 0
 6-311+G(2d,p)
 ****
 34  35 0
 6-311+G(2d,p)
 ****
 1  2  14  15  16  17  18  19  20  22  24  25  26 0
 3-21G
 ****
 31  33  36  37  38  39  40  41  42  43  44  45  46 0
 3-21G
 ****


