%nproc=1
%NoSave
%Mem=1900MB
#P OB98/GEN NMR

erre ene a

0 1
  C     -669.090     555.514     195.161
  O     -667.775     555.106     194.824
  H     -669.750     554.644     195.099
  H     -669.449     556.281     194.472
  H     -669.109     555.895     196.189
  P     -666.670     556.249     194.591
  C     -667.917     556.687     192.368
  O     -667.317     557.264     193.529
  C     -667.706     557.578     191.136
  O     -668.451     558.802     191.289
  C     -666.263     558.005     190.923
  O     -665.403     556.955     190.544
  C     -666.409     559.228     190.030
  O     -666.491     558.910     188.641
  C     -667.766     559.811     190.507
  N     -667.595     561.046     191.263
  C     -668.060     562.204     190.642
  O     -668.567     562.218     189.517
  N     -667.882     563.373     191.338
  C     -667.254     563.490     192.548
  O     -667.089     564.579     193.102
  C     -666.754     562.242     193.142
  C     -666.942     561.095     192.474
  O     -665.299     555.760     194.202
  O     -666.695     557.083     195.953
  H     -667.278     558.344     188.528
  H     -665.881     557.645     196.041
  H     -668.221     564.219     190.907
  H     -666.246     562.308     194.100
  H     -666.586     560.158     192.900
  H     -668.410     560.033     189.646
  H     -665.577     559.919     190.154
  H     -665.871     558.375     191.883
  H     -668.097     557.047     190.255
  H     -668.995     556.587     192.558
  H     -667.487     555.689     192.192
  P     -663.822     556.981     190.790
  C     -663.410     558.095     188.473
  O     -663.180     558.146     189.878
  O     -663.119     555.653     190.848
  O     -663.749     557.634     192.268
  H     -662.988     557.228     192.721
  H     -662.927     558.926     188.002
  H     -664.462     558.139     188.282
  H     -663.014     557.182     188.080

 6  7  8  9  10  11  12  13  14  15  16  26  31  32  33  34  35 0
 6-311+G(2d,p)
 ****
 36  37 0
 6-311+G(2d,p)
 ****
 1  2  3  4  5  17  18  19  20  21  22  23  24  25 0
 3-21G
 ****
 27  28  29  30  38  39  40  41  42  43  44  45 0
 3-21G
 ****


