%nproc=1
%NoSave
%Mem=1900MB
#P OB98/GEN NMR

erre ene a

0 1
  C     -694.607    -745.302    -347.647
  O     -694.277    -745.192    -346.258
  P     -693.381    -746.331    -345.589
  C     -691.975    -744.383    -344.630
  O     -692.515    -745.679    -344.405
  C     -692.178    -743.481    -343.421
  O     -693.547    -742.978    -343.416
  C     -692.006    -744.175    -342.066
  O     -690.694    -744.200    -341.481
  C     -692.869    -743.288    -341.154
  O     -692.097    -742.135    -340.731
  C     -694.009    -742.854    -342.048
  N     -698.983    -742.579    -340.892
  C     -698.036    -741.633    -341.026
  N     -696.739    -741.781    -341.335
  C     -696.449    -743.081    -341.537
  C     -697.305    -744.160    -341.426
  C     -698.632    -743.881    -341.085
  N     -699.603    -744.846    -340.951
  N     -696.637    -745.352    -341.698
  C     -695.396    -744.993    -341.932
  N     -695.231    -743.627    -341.864
  O     -692.618    -747.200    -346.533
  O     -694.465    -747.194    -344.782
  H     -691.710    -741.763    -341.539
  H     -694.222    -748.141    -344.839
  H     -698.362    -740.612    -340.865
  H     -694.581    -745.679    -342.153
  H     -694.285    -741.798    -341.911
  H     -693.167    -743.804    -340.235
  H     -692.416    -745.199    -342.081
  H     -691.503    -742.611    -343.479
  H     -692.464    -743.944    -345.503
  H     -700.525    -744.553    -340.657
  H     -699.352    -745.820    -341.029
  H     -690.924    -744.508    -344.900
  P     -689.842    -745.563    -341.416
  C     -687.658    -744.183    -341.887
  O     -688.351    -745.101    -341.055
  O     -689.950    -746.438    -342.617
  O     -690.346    -746.226    -340.065
  H     -690.091    -745.751    -339.250
  H     -686.757    -743.835    -341.364
  H     -688.281    -743.318    -342.112
  H     -687.357    -744.689    -342.824
  H     -695.208    -744.466    -347.938
  H     -695.152    -746.208    -347.813
  H     -693.708    -745.315    -348.227

 3  4  5  6  7  8  9  10  11  12  22  25  29  30  31  32 0
 6-311+G(2d,p)
 ****
 33  36  37 0
 6-311+G(2d,p)
 ****
 1  2  13  14  15  16  17  18  19  20  21  23  24  26 0
 3-21G
 ****
 27  28  34  35  38  39  40  41  42  43  44  45  46  47  48 0
 3-21G
 ****


