%nproc=1
%NoSave
%Mem=1900MB
#P OB98/GEN NMR

erre ene a

0 1
  C      -54.229    -650.157    -154.556
  O      -53.749    -651.401    -155.020
  H      -53.381    -649.484    -154.418
  H      -54.736    -650.280    -153.597
  H      -54.917    -649.716    -155.284
  P      -54.841    -652.540    -155.311
  C      -54.186    -654.189    -153.405
  O      -55.118    -653.232    -153.883
  C      -54.696    -654.830    -152.105
  O      -55.940    -655.525    -152.375
  C      -53.721    -655.840    -151.506
  O      -53.659    -655.652    -150.088
  C      -54.316    -657.192    -151.842
  O      -53.928    -658.210    -150.920
  C      -55.820    -656.870    -151.886
  N      -56.556    -657.814    -152.721
  C      -56.899    -659.045    -152.143
  O      -56.570    -659.295    -150.988
  N      -57.555    -659.973    -152.904
  C      -57.799    -659.724    -154.158
  N      -58.432    -660.693    -154.865
  C      -57.409    -658.466    -154.825
  C      -56.808    -657.561    -154.047
  O      -53.998    -653.647    -156.100
  O      -56.065    -652.085    -156.033
  H      -54.470    -659.012    -151.110
  H      -54.586    -654.312    -156.534
  H      -57.616    -658.315    -155.872
  H      -56.485    -656.606    -154.458
  H      -56.245    -656.899    -150.868
  H      -53.978    -657.504    -152.842
  H      -52.711    -655.755    -151.914
  H      -54.932    -654.032    -151.395
  H      -58.670    -661.550    -154.381
  H      -53.229    -653.689    -153.214
  H      -58.641    -660.629    -155.853
  H      -54.043    -654.961    -154.163
  P      -52.923    -654.315    -149.581
  C      -50.580    -655.272    -149.031
  O      -51.358    -654.469    -149.903
  O      -53.010    -654.416    -147.992
  O      -53.552    -653.069    -150.113
  H      -53.739    -653.871    -147.652
  H      -49.564    -655.283    -149.367
  H      -50.965    -656.270    -149.027
  H      -50.624    -654.869    -148.041

 6  7  8  9  10  11  12  13  14  15  16  26  30  31  32  33  35 0
 6-311+G(2d,p)
 ****
 37  38 0
 6-311+G(2d,p)
 ****
 1  2  3  4  5  17  18  19  20  21  22  23  24  25 0
 3-21G
 ****
 27  28  29  34  36  39  40  41  42  43  44  45  46 0
 3-21G
 ****


