%nproc=1
%NoSave
%Mem=1900MB
#P OB98/GEN NMR

erre ene a

0 1
  C      171.902    -272.706      61.229
  O      172.579    -273.209      60.083
  P      172.197    -274.673      59.556
  C      170.357    -273.765      57.967
  O      170.668    -274.613      59.067
  C      170.232    -274.570      56.674
  O      169.597    -273.739      55.661
  C      171.564    -275.058      56.091
  O      171.316    -276.316      55.451
  C      171.879    -274.016      55.033
  O      172.797    -274.495      54.055
  C      170.473    -273.727      54.510
  N      170.992    -271.304      50.038
  C      171.122    -272.606      50.375
  N      170.966    -273.175      51.585
  C      170.647    -272.253      52.511
  C      170.518    -270.880      52.319
  C      170.700    -270.408      51.011
  N      170.561    -269.084      50.664
  N      170.211    -270.255      53.510
  C      170.154    -271.224      54.403
  N      170.390    -272.448      53.834
  O      172.123    -275.522      60.911
  O      173.161    -275.275      58.588
  H      172.956    -273.777      53.413
  H      172.862    -276.165      60.944
  H      171.378    -273.277      49.558
  H      169.957    -271.098      55.455
  H      170.122    -274.497      53.813
  H      172.319    -273.128      55.503
  H      172.367    -275.160      56.831
  H      169.562    -275.417      56.858
  H      171.167    -273.038      57.848
  H      170.571    -268.842      49.683
  H      170.156    -268.443      51.335
  H      169.431    -273.229      58.172
  P      172.598    -277.173      55.011
  C      172.955    -278.207      57.362
  O      173.475    -277.395      56.328
  O      173.456    -276.136      54.145
  O      172.266    -278.406      54.233
  H      173.994    -276.615      53.490
  H      173.781    -278.729      57.854
  H      172.242    -278.949      56.982
  H      172.449    -277.572      58.098
  H      172.264    -271.725      61.455
  H      172.081    -273.353      62.062
  H      170.851    -272.661      61.032

 3  4  5  6  7  8  9  10  11  12  22  25  29  30  31  32 0
 6-311+G(2d,p)
 ****
 33  36  37 0
 6-311+G(2d,p)
 ****
 1  2  13  14  15  16  17  18  19  20  21  23  24  26 0
 3-21G
 ****
 27  28  34  35  38  39  40  41  42  43  44  45  46  47  48 0
 3-21G
 ****


