%nproc=1
%NoSave
%Mem=1900MB
#P OB98/GEN NMR

erre ene a

0 1
  C      212.347     112.418    -235.197
  O      211.513     111.288    -234.922
  P      209.934     111.574    -234.883
  C      209.749     110.970    -237.400
  O      209.261     110.744    -236.084
  C      209.213     109.911    -238.373
  O      209.836     108.616    -238.126
  C      207.687     109.704    -238.282
  O      207.230     109.414    -239.612
  C      207.591     108.469    -237.397
  O      206.318     107.842    -237.451
  C      208.761     107.661    -237.948
  N      208.982     102.579    -237.497
  C      208.501     103.379    -238.472
  N      208.476     104.731    -238.515
  C      209.027     105.249    -237.406
  C      209.560     104.564    -236.320
  C      209.526     103.155    -236.392
  N      209.993     102.333    -235.393
  N      210.012     105.451    -235.354
  C      209.688     106.644    -235.822
  N      209.173     106.575    -237.086
  O      209.817     113.101    -235.357
  O      209.318     111.347    -233.540
  H      205.622     108.482    -237.190
  H      209.713     113.688    -234.584
  H      208.079     102.865    -239.334
  H      209.806     107.582    -235.293
  H      208.541     107.229    -238.931
  H      207.771     108.755    -236.354
  H      207.146     110.571    -237.895
  H      209.481     110.213    -239.397
  H      210.840     110.941    -237.407
  H      209.920     101.335    -235.535
  H      210.392     102.726    -234.551
  H      209.466     111.982    -237.718
  P      206.346     110.512    -240.379
  C      208.403     111.517    -241.544
  O      207.171     110.833    -241.720
  O      206.656     111.816    -239.495
  O      204.888     110.201    -240.524
  H      207.616     111.930    -239.365
  H      208.896     111.599    -242.515
  H      209.049     110.960    -240.859
  H      208.218     112.521    -241.154
  H      213.372     112.112    -235.199
  H      212.198     113.163    -234.444
  H      212.094     112.823    -236.154

 3  4  5  6  7  8  9  10  11  12  22  25  29  30  31  32 0
 6-311+G(2d,p)
 ****
 33  36  37 0
 6-311+G(2d,p)
 ****
 1  2  13  14  15  16  17  18  19  20  21  23  24  26 0
 3-21G
 ****
 27  28  34  35  38  39  40  41  42  43  44  45  46  47  48 0
 3-21G
 ****


