%nproc=1
%NoSave
%Mem=1900MB
#P OB98/GEN NMR

erre ene a

0 1
  C      126.452     190.397     145.590
  O      127.133     190.765     146.778
  P      128.491     191.615     146.704
  C      130.790     191.214     145.609
  O      129.594     190.615     146.098
  C      131.905     190.171     145.476
  O      132.410     189.801     146.775
  C      131.460     188.868     144.820
  O      131.357     189.027     143.413
  C      132.566     187.920     145.271
  O      133.725     188.037     144.431
  C      132.873     188.430     146.696
  N      132.266     187.597     147.728
  C      132.686     186.259     147.756
  O      133.490     185.845     146.919
  N      132.139     185.415     148.697
  C      131.245     185.870     149.524
  N      130.735     184.982     150.427
  C      130.756     187.262     149.504
  C      131.302     188.062     148.592
  O      128.876     192.302     147.975
  O      128.220     192.628     145.492
  H      134.038     188.962     144.523
  H      127.589     193.347     145.753
  H      129.998     187.586     150.207
  H      130.997     189.098     148.509
  H      133.955     188.464     146.868
  H      132.245     186.872     145.238
  H      130.504     188.545     145.247
  H      132.726     190.619     144.902
  H      131.078     184.031     150.383
  H      131.105     191.986     146.318
  H      130.010     185.218     151.085
  H      130.594     191.691     144.642
  P      130.350     188.104     142.580
  C      129.791     185.598     142.740
  O      130.813     186.578     142.767
  O      130.109     188.530     141.168
  O      128.988     188.168     143.429
  H      128.237     188.292     142.816
  H      130.245     184.625     142.536
  H      129.058     185.824     141.958
  H      129.292     185.570     143.710
  H      125.575     189.838     145.840
  H      127.096     189.797     144.981
  H      126.172     191.278     145.052

 3  4  5  6  7  8  9  10  11  12  13  23  27  28  29  30  32 0
 6-311+G(2d,p)
 ****
 34  35 0
 6-311+G(2d,p)
 ****
 1  2  14  15  16  17  18  19  20  21  22  24  25  26 0
 3-21G
 ****
 31  33  36  37  38  39  40  41  42  43  44  45  46 0
 3-21G
 ****


