%nproc=1
%NoSave
%Mem=1900MB
#P OB98/GEN NMR

erre ene a

0 1
  C      -66.210    -188.242      -5.037
  O      -67.390    -188.894      -4.551
  P      -67.602    -189.267      -3.005
  C      -69.450    -187.477      -2.787
  O      -68.248    -188.016      -2.242
  C      -70.614    -187.573      -1.796
  O      -70.399    -186.700      -0.671
  C      -71.970    -187.173      -2.365
  O      -72.498    -188.193      -3.192
  C      -72.761    -186.920      -1.084
  O      -73.263    -188.148      -0.533
  C      -71.687    -186.304      -0.163
  N      -71.800    -184.854      -0.064
  C      -72.844    -184.362       0.733
  O      -73.645    -185.134       1.257
  N      -72.965    -183.001       0.887
  C      -72.166    -182.204       0.245
  N      -72.329    -180.866       0.444
  C      -71.113    -182.678      -0.671
  C      -70.989    -184.000      -0.775
  O      -66.386    -189.824      -2.340
  O      -68.785    -190.354      -3.000
  H      -73.774    -187.909       0.263
  H      -68.655    -190.965      -2.249
  H      -70.487    -181.982      -1.209
  H      -70.233    -184.437      -1.419
  H      -71.757    -186.731       0.846
  H      -73.623    -186.263      -1.245
  H      -71.877    -186.234      -2.925
  H      -70.647    -188.603      -1.416
  H      -73.056    -180.572       1.085
  H      -69.698    -188.043      -3.693
  H      -71.759    -180.163      -0.005
  H      -69.272    -186.432      -3.066
  P      -73.107    -187.817      -4.627
  C      -71.438    -189.022      -6.160
  O      -71.894    -187.772      -5.674
  O      -74.010    -186.626      -4.653
  O      -73.896    -189.142      -5.063
  H      -74.662    -188.886      -5.611
  H      -70.930    -188.862      -7.115
  H      -72.272    -189.713      -6.314
  H      -70.730    -189.451      -5.449
  H      -66.293    -188.096      -6.094
  H      -65.355    -188.849      -4.826
  H      -66.102    -187.294      -4.554

 3  4  5  6  7  8  9  10  11  12  13  23  27  28  29  30  32 0
 6-311+G(2d,p)
 ****
 34  35 0
 6-311+G(2d,p)
 ****
 1  2  14  15  16  17  18  19  20  21  22  24  25  26 0
 3-21G
 ****
 31  33  36  37  38  39  40  41  42  43  44  45  46 0
 3-21G
 ****


