%nproc=1
%NoSave
%Mem=1900MB
#P OB98/GEN NMR

erre ene a

0 1
  C     -277.108    -683.344      33.140
  O     -276.307    -683.575      31.999
  H     -276.822    -682.383      33.576
  H     -276.943    -684.126      33.886
  H     -278.167    -683.302      32.869
  P     -276.630    -684.844      31.076
  C     -275.927    -686.586      32.838
  O     -275.667    -686.033      31.553
  C     -274.829    -687.583      33.203
  O     -274.843    -688.698      32.286
  C     -273.425    -687.006      33.116
  O     -273.139    -686.154      34.218
  C     -272.592    -688.276      33.057
  O     -272.387    -688.825      34.367
  C     -273.493    -689.207      32.212
  N     -273.038    -689.296      30.824
  C     -272.009    -690.196      30.574
  O     -271.497    -690.902      31.437
  N     -271.542    -690.221      29.288
  C     -271.900    -689.354      28.290
  O     -271.282    -689.246      27.237
  C     -273.034    -688.464      28.599
  C     -273.532    -688.469      29.833
  O     -276.632    -684.583      29.605
  O     -278.070    -685.323      31.588
  H     -278.750    -685.020      30.957
  H     -272.126    -689.757      34.225
  H     -270.766    -690.841      29.104
  H     -273.396    -687.814      27.810
  H     -274.345    -687.801      30.095
  H     -273.512    -690.215      32.644
  H     -271.614    -688.097      32.616
  H     -273.302    -686.453      32.181
  H     -275.035    -687.971      34.212
  H     -276.894    -687.109      32.807
  H     -275.981    -685.774      33.577
  P     -272.585    -684.675      33.975
  C     -270.537    -685.411      32.603
  O     -270.994    -684.761      33.782
  O     -273.042    -683.653      34.956
  O     -273.093    -684.307      32.494
  H     -273.533    -683.436      32.520
  H     -269.467    -685.407      32.585
  H     -270.910    -684.894      31.743
  H     -270.890    -686.421      32.593

 6  7  8  9  10  11  12  13  14  15  16  27  31  32  33  34  35 0
 6-311+G(2d,p)
 ****
 36  37 0
 6-311+G(2d,p)
 ****
 1  2  3  4  5  17  18  19  20  21  22  23  24  25 0
 3-21G
 ****
 26  28  29  30  38  39  40  41  42  43  44  45 0
 3-21G
 ****


