%nproc=1
%NoSave
%Mem=1900MB
#P OB98/GEN NMR

erre ene a

0 1
  C       18.593     409.502      34.376
  O       18.158     409.833      33.077
  H       19.666     409.684      34.444
  H       18.403     408.441      34.567
  H       18.086     410.105      35.134
  P       16.600     410.098      32.829
  C       15.933     407.610      32.670
  O       16.006     408.860      31.997
  C       15.000     406.635      31.953
  O       13.695     407.233      31.797
  C       15.491     406.280      30.547
  O       16.404     405.193      30.499
  C       14.188     405.931      29.834
  O       13.854     404.544      30.001
  C       13.154     406.818      30.536
  N       10.238     408.719      26.792
  C       10.430     407.400      27.154
  N        9.792     406.478      26.399
  N       11.190     407.031      28.153
  C       11.837     408.057      28.750
  C       11.743     409.402      28.463
  C       10.841     409.806      27.404
  O       10.627     410.961      27.055
  N       12.584     410.146      29.253
  C       13.247     409.245      29.953
  N       12.772     407.971      29.740
  O       16.594     411.280      31.743
  O       15.813     410.492      34.042
  H       13.008     404.380      29.538
  H       15.805     411.839      31.875
  H        9.619     408.942      26.030
  H       14.043     409.463      30.658
  H       12.232     406.264      30.753
  H       14.273     406.111      28.758
  H        9.266     406.700      25.571
  H       15.926     407.155      30.053
  H       10.055     405.497      26.513
  H       14.872     405.737      32.571
  H       15.555     407.820      33.673
  H       16.932     407.177      32.780
  P       17.882     405.385      29.921
  C       17.127     404.681      27.506
  O       18.018     404.522      28.590
  O       18.786     404.592      30.975
  O       18.326     406.803      29.757
  H       19.189     405.209      31.614
  H       17.398     404.007      26.720
  H       17.178     405.688      27.147
  H       16.130     404.468      27.830

 6  7  8  9  10  11  12  13  14  15  26  29  33  34 0
 6-311+G(2d,p)
 ****
 36  38  39  40  41 0
 6-311+G(2d,p)
 ****
 1  2  3  4  5  16  17  18  19  20  21  22  23  24  25 0
 3-21G
 ****
 27  28  30  31  32  35  37  42  43  44  45  46  47 0
 3-21G
 ****
 48  49 0
 3-21G
 ****


