%nproc=1
%NoSave
%Mem=1900MB
#P OB98/GEN NMR

erre ene a

0 1
  C     -281.520     211.395     108.759
  O     -280.538     212.272     109.297
  P     -279.014     211.773     109.298
  C     -278.170     214.200     109.620
  O     -278.176     212.869     110.123
  C     -277.076     215.026     110.286
  O     -277.407     215.201     111.691
  C     -275.676     214.397     110.217
  O     -274.716     215.414     109.891
  C     -275.414     213.955     111.648
  O     -274.021     213.886     111.937
  C     -276.170     215.037     112.416
  N     -274.068     214.633     116.991
  C     -273.573     215.221     115.839
  N     -272.316     215.712     115.909
  N     -274.245     215.306     114.723
  C     -275.499     214.799     114.810
  C     -276.105     214.207     115.896
  C     -275.327     214.061     117.107
  O     -275.676     213.477     118.129
  N     -277.393     213.831     115.602
  C     -277.566     214.192     114.344
  N     -276.427     214.739     113.807
  O     -278.562     212.010     107.781
  O     -278.807     210.355     109.708
  H     -273.934     213.559     112.852
  H     -278.230     211.175     107.400
  H     -273.501     214.578     117.818
  H     -278.479     214.050     113.777
  H     -275.624     215.990     112.374
  H     -275.854     212.965     111.805
  H     -271.756     215.709     116.747
  H     -275.591     213.568     109.506
  H     -271.943     216.165     115.083
  H     -277.074     216.027     109.834
  H     -279.145     214.661     109.820
  H     -278.012     214.166     108.536
  P     -273.878     215.185     108.537
  C     -273.002     217.608     108.920
  O     -272.702     216.270     108.566
  O     -274.870     215.723     107.399
  O     -273.463     213.770     108.315
  H     -274.663     215.303     106.542
  H     -274.022     217.717     109.303
  H     -272.886     218.241     108.037
  H     -272.298     217.935     109.690
  H     -282.484     211.856     108.824
  H     -281.524     210.480     109.314
  H     -281.291     211.189     107.734

 3  4  5  6  7  8  9  10  11  12  23  26  30  31  33  0
 6-311+G(2d,p)
 ****
 35  36  37  38 0
 6-311+G(2d,p)
 ****
 1  2  13  14  15  16  17  18  19  20  21  22  24  25  27  28  29 0
 3-21G
 ****
 32  34  39  40  41  42  43  44  45  46  47  48  49 0
 3-21G
 ****


