%nproc=1
%NoSave
%Mem=1900MB
#P OB98/GEN NMR

erre ene a

0 1
  C      440.272    -398.565     388.911
  O      440.606    -397.431     388.132
  H      440.043    -398.235     389.925
  H      441.119    -399.259     388.945
  H      439.396    -399.069     388.492
  P      440.963    -397.705     386.591
  C      438.909    -396.350     385.727
  O      439.581    -397.601     385.786
  C      437.416    -396.555     385.439
  O      436.819    -397.245     386.581
  C      436.629    -395.242     385.255
  O      435.523    -395.514     384.377
  C      436.115    -394.987     386.661
  O      435.099    -394.014     386.661
  C      435.732    -396.417     387.050
  N      432.371    -396.160     390.906
  C      432.226    -395.979     389.568
  N      433.165    -396.076     388.605
  C      434.354    -396.417     389.130
  C      434.658    -396.646     390.464
  C      433.589    -396.504     391.373
  N      433.735    -396.680     392.736
  N      435.989    -396.983     390.620
  C      436.488    -396.951     389.397
  N      435.543    -396.608     388.465
  O      441.303    -399.270     386.566
  O      442.080    -396.882     386.034
  H      434.686    -393.940     387.555
  H      442.265    -399.402     386.645
  H      431.225    -395.721     389.241
  H      437.520    -397.161     389.134
  H      434.808    -396.744     386.546
  H      436.914    -394.613     387.306
  H      437.232    -394.435     384.837
  H      437.307    -397.219     384.572
  H      439.358    -395.752     384.927
  H      439.027    -395.821     386.682
  H      432.932    -396.542     393.327
  H      434.643    -396.916     393.108
  P      435.798    -395.679     382.800
  C      435.108    -398.184     382.484
  O      436.150    -397.213     382.487
  O      437.236    -394.970     382.639
  O      434.786    -395.037     381.896
  H      437.321    -394.613     381.732
  H      435.518    -399.146     382.258
  H      434.380    -397.924     381.744
  H      434.643    -398.211     383.447

 6  7  8  9  10  11  12  13  14  15  25  28  32  33  34  35 0
 6-311+G(2d,p)
 ****
 36  37  40 0
 6-311+G(2d,p)
 ****
 1  2  3  4  5  16  17  18  19  20  21  22  23  24 0
 3-21G
 ****
 26  27  29  30  31  38  39 41  42  43  44  45  46  47  48 0
 3-21G
 ****


