%nproc=1
%NoSave
%Mem=1900MB
#P OB98/GEN NMR

erre ene a

0 1
  C       92.337      23.570     266.393
  O       91.693      22.543     265.633
  P       90.162      22.217     265.979
  C       90.842      20.706     267.988
  O       90.106      20.829     266.777
  C       90.129      19.747     268.944
  O       88.833      20.250     269.314
  C       89.868      18.381     268.334
  O       91.046      17.598     268.341
  C       88.765      17.838     269.235
  O       89.300      17.118     270.358
  C       88.035      19.118     269.703
  N       86.684      19.217     269.177
  C       85.730      18.394     269.785
  O       86.060      17.625     270.691
  N       84.436      18.443     269.332
  C       84.130      19.226     268.343
  N       82.833      19.228     267.934
  C       85.113      20.090     267.659
  C       86.360      20.035     268.122
  O       89.534      21.850     264.554
  O       89.434      23.349     266.628
  H       89.784      16.357     269.976
  H       88.601      22.127     264.515
  H       84.811      20.719     266.835
  H       87.147      20.635     267.679
  H       87.974      19.142     270.798
  H       88.115      17.143     268.696
  H       89.489      18.492     267.312
  H       90.741      19.643     269.851
  H       82.188      18.621     268.425
  H       90.959      21.684     268.459
  H       82.487      19.791     267.172
  H       91.851      20.348     267.752
  P       92.103      17.833     267.162
  C       91.905      15.426     266.294
  O       92.749      16.390     266.888
  O       93.294      18.587     267.925
  O       91.638      18.592     265.966
  H       93.972      18.875     267.288
  H       92.514      14.576     265.974
  H       91.399      15.843     265.419
  H       91.168      15.077     267.022
  H       93.347      23.681     266.059
  H       92.332      23.303     267.429
  H       91.814      24.494     266.260

 3  4  5  6  7  8  9  10  11  12  13  21  23  27  28  29  30  32 0
 6-311+G(2d,p)
 ****
 34  35 0
 6-311+G(2d,p)
 ****
 1  2  14  15  16  17  18  19  20  22  24  25  26 0
 3-21G
 ****
 31  33  36  37  38  39  40  41  42  43  44  45  46 0
 3-21G
 ****


