%nproc=1
%NoSave
%Mem=1900MB
#P OB98/GEN NMR

erre ene a

0 1
  C      -53.511     -15.022     -10.292
  O      -53.658     -13.691     -10.740
  H      -54.491     -15.396      -9.986
  H      -52.837     -15.065      -9.434
  H      -53.131     -15.656     -11.098
  P      -52.351     -12.881     -11.191
  C      -51.825     -11.880      -8.871
  O      -51.405     -12.770      -9.899
  C      -50.620     -11.119      -8.305
  O      -49.687     -12.097      -7.783
  C      -49.900     -10.284      -9.372
  O      -49.729      -8.922      -8.989
  C      -48.651     -11.105      -9.671
  O      -47.559     -10.353     -10.156
  C      -48.390     -11.837      -8.351
  N      -47.636     -13.080      -8.503
  C      -46.271     -12.972      -8.751
  O      -45.649     -11.916      -8.839
  N      -45.601     -14.160      -8.897
  C      -46.149     -15.406      -8.835
  O      -45.497     -16.434      -8.970
  C      -47.600     -15.454      -8.599
  C      -48.266     -14.307      -8.447
  O      -52.604     -11.589     -11.891
  O      -51.559     -13.911     -12.127
  H      -46.796     -10.964     -10.230
  H      -51.661     -13.647     -13.061
  H      -44.609     -14.096      -9.061
  H      -48.070     -16.426      -8.556
  H      -49.337     -14.305      -8.269
  H      -47.838     -11.198      -7.660
  H      -48.900     -11.843     -10.443
  H      -50.503     -10.214     -10.285
  H      -50.956     -10.502      -7.465
  H      -52.301     -12.475      -8.085
  H      -52.556     -11.171      -9.274
  P      -50.796      -7.762      -9.227
  C      -49.761      -5.925     -10.798
  O      -50.532      -7.111     -10.663
  O      -51.000      -6.819      -8.090
  O      -52.182      -8.559      -9.449
  H      -52.889      -7.982      -9.095
  H      -49.702      -5.654     -11.831
  H      -48.776      -6.095     -10.417
  H      -50.225      -5.133     -10.247

 6  7  8  9  10  11  12  13  14  15  16  26  31  32  33  34  35 0
 6-311+G(2d,p)
 ****
 36  37 0
 6-311+G(2d,p)
 ****
 1  2  3  4  5  17  18  19  20  21  22  23  24  25 0
 3-21G
 ****
 27  28  29  30  38  39  40  41  42  43  44  45 0
 3-21G
 ****


