%nproc=1
%NoSave
%Mem=1900MB
#P OB98/GEN NMR

erre ene a

0 1
  C      856.083     218.597    -347.639
  O      855.706     218.087    -346.378
  H      855.273     218.409    -348.348
  H      856.988     218.100    -348.005
  H      856.248     219.678    -347.579
  P      856.779     218.136    -345.184
  C      855.093     218.686    -343.295
  O      855.940     217.709    -343.880
  C      854.615     218.221    -341.920
  O      853.694     217.115    -342.043
  C      855.718     217.706    -341.002
  O      856.532     218.735    -340.460
  C      854.874     217.008    -339.943
  O      854.286     217.995    -339.077
  C      853.793     216.332    -340.825
  N      854.109     214.936    -341.141
  C      853.455     213.956    -340.381
  O      852.659     214.272    -339.498
  N      853.752     212.634    -340.616
  C      854.631     212.319    -341.517
  N      854.921     210.996    -341.671
  C      855.330     213.316    -342.348
  C      855.031     214.589    -342.112
  O      857.569     219.400    -345.053
  O      857.694     216.842    -345.417
  H      853.824     217.515    -338.364
  H      858.384     216.831    -344.710
  H      856.058     213.002    -343.080
  H      855.513     215.384    -342.669
  H      852.815     216.369    -340.332
  H      855.448     216.318    -339.318
  H      856.330     216.950    -341.509
  H      854.067     219.053    -341.462
  H      854.454     210.344    -341.054
  H      854.245     218.854    -343.970
  H      855.768     210.694    -342.141
  H      855.638     219.626    -343.166
  P      858.119     218.649    -340.706
  C      858.249     221.240    -340.476
  O      858.754     219.979    -340.070
  O      858.243     218.879    -342.279
  O      858.774     217.383    -340.250
  H      858.270     218.033    -342.763
  H      858.776     222.017    -339.963
  H      857.207     221.299    -340.241
  H      858.383     221.355    -341.531

 6  7  8  9  10  11  12  13  14  15  16  26  30  31  32  33  35 0
 6-311+G(2d,p)
 ****
 37  38 0
 6-311+G(2d,p)
 ****
 1  2  3  4  5  17  18  19  20  21  22  23  24  25 0
 3-21G
 ****
 27  28  29  34  36  39  40  41  42  43  44  45  46 0
 3-21G
 ****


