%nproc=1
%NoSave
%Mem=1900MB
#P OB98/GEN NMR

erre ene a

0 1
  C      123.430    -295.618     -81.130
  O      123.999    -294.889     -80.062
  H      122.380    -295.814     -80.901
  H      123.942    -296.574     -81.264
  H      123.483    -295.035     -82.053
  P      125.575    -294.607     -80.071
  C      125.512    -292.043     -79.837
  O      125.773    -293.143     -80.698
  C      125.517    -290.729     -80.619
  O      126.829    -290.554     -81.218
  C      124.471    -290.677     -81.738
  O      123.951    -289.348     -81.806
  C      125.290    -290.993     -82.972
  O      124.677    -290.493     -84.145
  C      126.647    -290.369     -82.633
  N      127.722    -290.986     -83.410
  C      127.942    -290.471     -84.691
  O      127.259    -289.534     -85.109
  N      128.880    -291.065     -85.494
  C      129.507    -292.119     -85.078
  N      130.395    -292.683     -85.940
  C      129.288    -292.715     -83.746
  C      128.393    -292.104     -82.970
  O      126.429    -295.668     -80.681
  O      125.928    -294.390     -78.524
  H      125.290    -290.600     -84.903
  H      126.178    -295.239     -78.115
  H      129.832    -293.599     -83.448
  H      128.159    -292.477     -81.980
  H      126.642    -289.290     -82.836
  H      125.389    -292.080     -83.080
  H      123.655    -291.391     -81.594
  H      125.379    -289.903     -79.912
  H      130.494    -292.254     -86.852
  H      126.298    -292.020     -79.074
  H      130.910    -293.528     -85.745
  H      124.545    -292.181     -79.342
  P      122.628    -288.945     -80.992
  C      123.891    -287.054     -79.818
  O      123.055    -288.192     -79.637
  O      121.649    -290.056     -80.802
  O      121.980    -287.772     -81.874
  H      121.010    -287.786     -81.765
  H      124.119    -286.624     -78.865
  H      123.384    -286.332     -80.423
  H      124.798    -287.351     -80.302

 6  7  8  9  10  11  12  13  14  15  16  26  30  31  32  33  35 0
 6-311+G(2d,p)
 ****
 37  38 0
 6-311+G(2d,p)
 ****
 1  2  3  4  5  17  18  19  20  21  22  23  24  25 0
 3-21G
 ****
 27  28  29  34  36  39  40  41  42  43  44  45  46 0
 3-21G
 ****


