%nproc=1
%NoSave
%Mem=1900MB
#P OB98/GEN NMR

erre ene a

0 1
  C     -782.895     308.067     318.503
  O     -781.705     308.032     317.740
  H     -783.746     308.154     317.822
  H     -782.890     308.933     319.174
  H     -783.002     307.146     319.085
  P     -780.331     307.967     318.573
  C     -778.711     309.761     319.517
  O     -779.731     309.455     318.576
  C     -777.987     311.040     319.123
  O     -777.228     310.848     317.906
  C     -778.896     312.241     318.888
  O     -779.213     312.881     320.112
  C     -778.023     313.100     317.982
  O     -777.048     313.835     318.749
  C     -777.344     312.047     317.095
  N     -779.083     313.985     312.767
  C     -778.485     314.604     313.843
  N     -778.344     315.954     313.770
  N     -778.057     313.972     314.906
  C     -778.311     312.644     314.865
  C     -778.900     311.908     313.863
  C     -779.312     312.621     312.671
  O     -779.775     312.112     311.648
  N     -778.963     310.574     314.187
  C     -778.446     310.513     315.401
  N     -778.041     311.740     315.857
  O     -779.340     307.173     317.596
  O     -780.418     307.303     319.903
  H     -776.679     313.257     319.435
  H     -778.769     306.585     318.130
  H     -779.362     314.522     311.963
  H     -778.333     309.606     315.980
  H     -776.328     312.343     316.814
  H     -778.618     313.848     317.450
  H     -778.897     316.509     313.133
  H     -779.806     311.944     318.345
  H     -777.976     316.412     314.594
  H     -777.257     311.265     319.916
  H     -778.003     308.929     319.551
  H     -779.163     309.878     320.506
  P     -780.474     313.878     320.135
  C     -780.835     316.435     320.350
  O     -779.910     315.384     320.134
  O     -781.038     313.695     321.624
  O     -781.526     313.579     319.119
  H     -781.861     313.164     321.598
  H     -780.321     317.373     320.323
  H     -781.300     316.310     321.306
  H     -781.583     316.415     319.585

 6  7  8  9  10  11  12  13  14  15  26  29  33  34 0
 6-311+G(2d,p)
 ****
 36  38  39  40  41 0
 6-311+G(2d,p)
 ****
 1  2  3  4  5  16  17  18  19  20  21  22  23  24  25 0
 3-21G
 ****
 27  28  30  31  32  35  37  42  43  44  45  46  47 0
 3-21G
 ****
 48  49 0
 3-21G
 ****


