%nproc=1
%NoSave
%Mem=1900MB
#P OB98/GEN NMR

erre ene a

0 1
  C      -76.412    -639.686    -122.200
  O      -76.131    -640.591    -121.127
  P      -75.812    -640.079    -119.642
  C      -73.421    -639.468    -120.375
  O      -74.598    -639.029    -119.704
  C      -72.779    -638.339    -121.186
  O      -72.648    -637.145    -120.385
  C      -71.385    -638.651    -121.715
  O      -71.455    -639.475    -122.865
  C      -70.838    -637.245    -121.961
  O      -71.315    -636.732    -123.216
  C      -71.449    -636.457    -120.793
  N      -67.545    -633.742    -118.905
  C      -68.262    -633.626    -120.040
  N      -69.285    -634.392    -120.478
  C      -69.563    -635.356    -119.587
  C      -68.921    -635.603    -118.383
  C      -67.859    -634.745    -118.048
  N      -67.121    -634.880    -116.895
  N      -69.472    -636.696    -117.752
  C      -70.447    -637.089    -118.547
  N      -70.544    -636.309    -119.668
  O      -75.623    -641.177    -118.642
  O      -77.072    -639.165    -119.246
  H      -72.291    -636.753    -123.190
  H      -77.193    -639.178    -118.277
  H      -67.976    -632.799    -120.691
  H      -71.108    -637.926    -118.353
  H      -71.756    -635.452    -121.102
  H      -69.745    -637.216    -121.990
  H      -70.789    -639.137    -120.935
  H      -73.456    -638.095    -122.018
  H      -73.692    -640.293    -121.047
  H      -66.357    -634.241    -116.740
  H      -67.318    -635.654    -116.273
  H      -72.713    -639.837    -119.629
  P      -71.127    -641.037    -122.755
  C      -68.865    -640.389    -123.767
  O      -69.535    -641.187    -122.812
  O      -71.886    -641.920    -123.685
  O      -71.457    -641.384    -121.223
  H      -71.740    -642.315    -121.159
  H      -68.945    -640.852    -124.754
  H      -67.805    -640.320    -123.491
  H      -69.285    -639.380    -123.799
  H      -76.595    -640.241    -123.096
  H      -75.575    -639.036    -122.347
  H      -77.277    -639.104    -121.958

 3  4  5  6  7  8  9  10  11  12  22  25  29  30  31  32 0
 6-311+G(2d,p)
 ****
 33  36  37 0
 6-311+G(2d,p)
 ****
 1  2  13  14  15  16  17  18  19  20  21  23  24  26 0
 3-21G
 ****
 27  28  34  35  38  39  40  41  42  43  44  45  46  47  48 0
 3-21G
 ****


