%nproc=1
%NoSave
%Mem=1900MB
#P OB98/GEN NMR

erre ene a

0 1
  C      496.312     -85.187     450.878
  O      495.696     -83.963     450.525
  H      495.640     -86.014     450.613
  H      496.494     -85.212     451.955
  H      497.253     -85.314     450.337
  P      496.600     -82.640     450.638
  C      496.850     -82.293     448.077
  O      497.499     -82.589     449.313
  C      496.934     -80.790     447.780
  O      498.321     -80.366     447.753
  C      496.341     -80.386     446.437
  O      494.927     -80.223     446.515
  C      497.038     -79.046     446.220
  O      496.410     -78.037     447.042
  C      498.453     -79.347     446.727
  N      501.411     -77.966     442.850
  C      500.606     -77.195     443.669
  N      500.575     -75.863     443.409
  N      499.890     -77.677     444.649
  C      500.009     -79.021     444.781
  C      500.776     -79.891     444.041
  C      501.575     -79.337     442.963
  O      502.324     -79.970     442.225
  N      500.643     -81.184     444.482
  C      499.786     -81.098     445.477
  N      499.364     -79.813     445.692
  O      497.665     -83.014     451.781
  O      495.866     -81.387     450.972
  H      496.341     -78.398     447.943
  H      497.854     -82.213     452.310
  H      501.943     -77.537     442.099
  H      499.444     -81.936     446.066
  H      498.919     -78.466     447.191
  H      496.969     -78.705     445.187
  H      501.071     -75.440     442.644
  H      496.628     -81.079     445.636
  H      500.012     -75.278     444.011
  H      496.449     -80.258     448.605
  H      495.798     -82.581     448.145
  H      497.332     -82.863     447.274
  P      494.074     -80.491     445.177
  C      493.964     -82.971     445.943
  O      494.222     -82.058     444.877
  O      494.977     -79.809     444.036
  O      492.683     -79.951     445.200
  H      494.417     -79.584     443.268
  H      494.102     -83.973     445.595
  H      492.957     -82.847     446.283
  H      494.640     -82.777     446.750

 6  7  8  9  10  11  12  13  14  15  26  29  33  34 0
 6-311+G(2d,p)
 ****
 36  38  39  40  41 0
 6-311+G(2d,p)
 ****
 1  2  3  4  5  16  17  18  19  20  21  22  23  24  25 0
 3-21G
 ****
 27  28  30  31  32  35  37  42  43  44  45  46  47 0
 3-21G
 ****
 48  49 0
 3-21G
 ****


