%nproc=1
%NoSave
%Mem=1900MB
#P OB98/GEN NMR

erre ene a

0 1
  C      114.656    -313.530     103.507
  O      115.390    -312.937     104.567
  H      115.317    -314.222     102.978
  H      114.320    -312.756     102.810
  H      113.800    -314.081     103.902
  P      114.558    -312.015     105.591
  C      113.862    -310.329     103.688
  O      113.461    -311.257     104.697
  C      112.930    -310.418     102.482
  O      111.595    -310.009     102.888
  C      113.349    -309.529     101.309
  O      113.062    -310.219     100.087
  C      112.451    -308.308     101.437
  O      112.290    -307.615     100.190
  C      111.169    -308.934     102.021
  N      110.362    -307.956     102.745
  C      109.180    -307.526     102.115
  O      108.889    -307.931     100.992
  N      108.397    -306.590     102.748
  C      108.779    -306.087     103.880
  N      107.967    -305.153     104.450
  C      110.040    -306.477     104.565
  C      110.762    -307.421     103.954
  O      115.623    -310.871     105.940
  O      114.015    -312.753     106.780
  H      113.188    -307.370      99.871
  H      116.129    -310.567     105.168
  H      110.316    -306.024     105.501
  H      111.693    -307.768     104.393
  H      110.564    -309.368     101.219
  H      112.886    -307.602     102.157
  H      114.398    -309.255     101.329
  H      112.848    -311.471     102.173
  H      107.117    -304.899     103.946
  H      114.892    -310.535     103.372
  H      108.195    -304.658     105.301
  H      113.829    -309.332     104.124
  P      114.168    -311.189      99.454
  C      115.091    -309.632      97.632
  O      115.363    -310.316      98.845
  O      113.640    -312.260      98.560
  O      114.840    -311.843     100.762
  H      115.040    -312.789     100.567
  H      115.960    -309.087      97.327
  H      114.278    -308.952      97.780
  H      114.830    -310.340      96.874

 6  7  8  9  10  11  12  13  14  15  16  26  30  31  32  33  35 0
 6-311+G(2d,p)
 ****
 37  38 0
 6-311+G(2d,p)
 ****
 1  2  3  4  5  17  18  19  20  21  22  23  24  25 0
 3-21G
 ****
 27  28  29  34  36  39  40  41  42  43  44  45  46 0
 3-21G
 ****


