%nproc=1
%NoSave
%Mem=1900MB
#P OB98/GEN NMR

erre ene a

0 1
  C      -94.310     167.161      30.536
  O      -94.994     166.834      31.752
  P      -94.300     167.337      33.114
  C      -96.373     168.274      34.368
  O      -95.392     167.248      34.290
  C      -97.709     167.833      33.764
  O      -98.095     166.561      34.340
  C      -98.872     168.803      33.998
  O      -99.704     168.812      32.830
  C      -99.661     168.143      35.113
  O     -101.018     168.575      35.142
  C      -99.466     166.672      34.754
  N     -102.899     163.616      36.866
  C     -102.934     164.278      35.654
  N     -104.050     164.120      34.913
  N     -101.959     165.027      35.209
  C     -100.890     165.067      36.041
  C     -100.732     164.448      37.261
  C     -101.836     163.657      37.759
  O     -101.887     163.088      38.848
  N      -99.504     164.729      37.811
  C      -98.927     165.522      36.931
  N      -99.731     165.762      35.845
  O      -94.118     168.908      32.869
  O      -92.995     166.675      33.403
  H     -101.498     167.974      35.743
  H      -93.179     169.155      32.976
  H     -103.685     163.068      37.169
  H      -97.948     165.967      37.038
  H     -100.099     166.381      33.908
  H      -99.203     168.388      36.079
  H     -104.809     163.507      35.166
  H      -98.567     169.825      34.246
  H     -104.075     164.561      34.002
  H      -97.561     167.669      32.690
  H      -96.014     169.159      33.834
  H      -96.507     168.551      35.419
  P     -100.028     170.250      32.193
  C     -100.047     169.558      29.686
  O     -100.795     169.955      30.820
  O      -98.592     170.775      31.722
  O     -100.701     171.195      33.131
  H      -98.575     171.751      31.717
  H      -99.015     169.304      29.941
  H     -100.041     170.374      28.960
  H     -100.524     168.684      29.236
  H      -94.861     166.778      29.703
  H      -93.333     166.725      30.548
  H      -94.225     168.224      30.449

 3  4  5  6  7  8  9  10  11  12  23  26  30  31  33  0
 6-311+G(2d,p)
 ****
 35  36  37  38 0
 6-311+G(2d,p)
 ****
 1  2  13  14  15  16  17  18  19  20  21  22  24  25  27  28  29 0
 3-21G
 ****
 32  34  39  40  41  42  43  44  45  46  47  48  49 0
 3-21G
 ****


