%nproc=1
%NoSave
%Mem=1900MB
#P OB98/GEN NMR

erre ene a

0 1
  C       50.050    -307.914     268.466
  O       49.210    -308.660     269.324
  H       50.948    -307.628     269.020
  H       49.542    -307.005     268.136
  H       50.349    -308.509     267.600
  P       47.890    -309.334     268.716
  C       45.937    -308.504     267.249
  O       46.978    -308.146     268.148
  C       44.580    -308.194     267.876
  O       44.347    -306.767     267.880
  C       43.402    -308.804     267.129
  O       43.287    -310.189     267.397
  C       42.257    -307.956     267.659
  O       41.827    -308.419     268.949
  C       42.918    -306.564     267.765
  N       42.597    -305.694     266.636
  C       42.125    -304.424     266.947
  O       41.942    -304.036     268.100
  N       41.836    -303.617     265.879
  C       41.864    -303.985     264.567
  O       41.510    -303.251     263.650
  C       42.349    -305.347     264.297
  C       42.690    -306.126     265.327
  O       47.186    -310.299     269.610
  O       48.414    -310.050     267.381
  H       41.080    -307.847     269.212
  H       48.468    -311.013     267.531
  H       41.478    -302.698     266.084
  H       42.401    -305.671     263.267
  H       43.044    -307.134     265.149
  H       42.602    -306.060     268.688
  H       41.386    -307.979     267.004
  H       43.504    -308.624     266.054
  H       44.598    -308.534     268.922
  H       46.005    -309.578     267.041
  H       46.068    -307.954     266.312
  P       42.450    -311.124     266.407
  C       39.983    -311.528     265.812
  O       40.901    -310.735     266.555
  O       42.746    -312.584     266.503
  O       42.821    -310.566     264.952
  H       43.242    -311.276     264.430
  H       38.987    -311.179     265.987
  H       40.063    -312.549     266.121
  H       40.209    -311.452     264.769

 6  7  8  9  10  11  12  13  14  15  16  26  31  32  33  34  35 0
 6-311+G(2d,p)
 ****
 36  37 0
 6-311+G(2d,p)
 ****
 1  2  3  4  5  17  18  19  20  21  22  23  24  25 0
 3-21G
 ****
 27  28  29  30  38  39  40  41  42  43  44  45 0
 3-21G
 ****


