%nproc=1
%NoSave
%Mem=1900MB
#P OB98/GEN NMR

erre ene a

0 1
  C      581.512    -620.123     410.206
  O      581.855    -620.848     409.035
  P      580.785    -621.133     407.876
  C      582.555    -620.810     406.039
  O      581.637    -621.710     406.637
  C      583.419    -621.514     404.981
  O      584.400    -622.366     405.647
  C      582.623    -622.396     403.998
  O      583.312    -622.315     402.738
  C      582.782    -623.788     404.594
  O      582.519    -624.824     403.655
  C      584.230    -623.708     405.120
  N      584.496    -624.727     406.125
  C      585.080    -625.925     405.669
  O      585.277    -626.100     404.461
  N      585.385    -626.910     406.588
  C      585.039    -626.745     407.824
  N      585.357    -627.755     408.692
  C      584.307    -625.571     408.321
  C      584.081    -624.602     407.426
  O      579.882    -619.993     407.547
  O      580.011    -622.442     408.393
  H      581.701    -624.585     403.160
  H      579.350    -622.191     409.101
  H      583.983    -625.511     409.359
  H      583.558    -623.698     407.702
  H      584.949    -623.829     404.296
  H      582.083    -623.901     405.430
  H      581.579    -622.091     403.878
  H      583.973    -620.746     404.429
  H      585.886    -628.547     408.309
  H      583.218    -620.427     406.831
  H      585.213    -627.705     409.683
  H      582.030    -619.958     405.598
  P      582.556    -621.867     401.395
  C      584.183    -620.698     399.795
  O      583.629    -621.938     400.211
  O      581.803    -620.582     401.497
  O      581.574    -623.103     401.083
  H      580.891    -622.811     400.435
  H      585.072    -620.891     399.194
  H      584.448    -620.080     400.651
  H      583.445    -620.169     399.174
  H      582.368    -620.049     410.843
  H      580.726    -620.632     410.723
  H      581.183    -619.142     409.934

 3  4  5  6  7  8  9  10  11  12  13  23  27  28  29  30  32 0
 6-311+G(2d,p)
 ****
 34  35 0
 6-311+G(2d,p)
 ****
 1  2  14  15  16  17  18  19  20  21  22  24  25  26 0
 3-21G
 ****
 31  33  36  37  38  39  40  41  42  43  44  45  46 0
 3-21G
 ****


