%nproc=1
%NoSave
%Mem=1900MB
#P OB98/GEN NMR

erre ene a

0 1
  C      386.610     531.879      60.496
  O      385.208     532.101      60.627
  P      384.448     532.765      59.381
  C      382.661     530.891      59.201
  O      383.765     531.547      58.587
  C      381.404     531.043      58.351
  O      381.612     530.457      57.046
  C      380.166     530.371      58.916
  O      379.523     531.153      59.905
  C      379.298     530.266      57.671
  O      378.668     531.540      57.418
  C      380.328     529.955      56.580
  N      377.864     525.855      54.772
  C      377.455     527.117      55.004
  N      378.171     528.148      55.502
  C      379.422     527.767      55.800
  C      379.969     526.491      55.656
  C      379.135     525.506      55.107
  N      379.565     524.228      54.844
  N      381.280     526.487      56.075
  C      381.529     527.718      56.454
  N      380.439     528.533      56.302
  O      385.646     533.207      58.412
  O      383.548     533.908      59.728
  H      378.336     531.863      58.262
  H      385.350     533.925      57.823
  H      376.419     527.330      54.745
  H      382.480     528.073      56.840
  H      380.111     530.459      55.638
  H      378.493     529.534      57.772
  H      380.397     529.354      59.282
  H      381.223     532.115      58.206
  H      382.483     531.328      60.186
  H      378.967     523.629      54.283
  H      380.559     524.035      54.906
  H      382.902     529.831      59.333
  P      378.530     530.380      60.918
  C      380.237     530.029      62.844
  O      379.486     529.448      61.804
  O      377.772     529.356      59.956
  O      377.607     531.276      61.660
  H      376.901     529.121      60.336
  H      380.577     529.237      63.528
  H      379.647     530.746      63.411
  H      381.120     530.528      62.435
  H      386.986     531.434      61.394
  H      387.105     532.812      60.326
  H      386.792     531.223      59.670

 3  4  5  6  7  8  9  10  11  12  22  25  29  30  31  32 0
 6-311+G(2d,p)
 ****
 33  36  37 0
 6-311+G(2d,p)
 ****
 1  2  13  14  15  16  17  18  19  20  21  23  24  26 0
 3-21G
 ****
 27  28  34  35  38  39  40  41  42  43  44  45  46  47  48 0
 3-21G
 ****


