%nproc=1
%NoSave
%Mem=1900MB
#P OB98/GEN NMR

erre ene a

0 1
  C     -305.908     482.624       8.885
  O     -307.174     482.029       9.070
  H     -305.548     482.986       9.851
  H     -305.995     483.474       8.201
  H     -305.186     481.905       8.489
  P     -307.788     481.136       7.893
  C     -307.130     478.642       7.779
  O     -307.895     479.632       8.446
  C     -306.978     477.389       8.652
  O     -306.488     477.785       9.958
  C     -308.330     476.695       8.874
  O     -308.179     475.297       9.096
  C     -308.834     477.347      10.151
  O     -309.792     476.548      10.846
  C     -307.534     477.558      10.921
  N     -305.235     480.045      14.734
  C     -304.927     478.816      14.182
  N     -303.861     478.166      14.710
  N     -305.609     478.267      13.212
  C     -306.686     478.992      12.829
  C     -307.110     480.208      13.319
  C     -306.323     480.824      14.363
  O     -306.567     481.898      14.908
  N     -308.255     480.633      12.686
  C     -308.526     479.674      11.824
  N     -307.593     478.667      11.855
  O     -306.588     481.029       6.836
  O     -309.036     481.671       7.257
  H     -310.318     477.144      11.406
  H     -306.934     480.819       5.948
  H     -304.659     480.437      15.457
  H     -309.373     479.667      11.147
  H     -307.271     476.659      11.495
  H     -309.329     478.284       9.883
  H     -303.436     478.465      15.576
  H     -309.019     476.852       8.054
  H     -303.817     477.158      14.540
  H     -306.228     476.718       8.221
  H     -306.153     479.084       7.565
  H     -307.587     478.390       6.817
  P     -308.275     474.307       7.839
  C     -306.978     474.561       5.543
  O     -306.955     474.427       6.949
  O     -309.411     474.960       6.925
  O     -308.591     472.886       8.194
  H     -310.182     474.366       6.865
  H     -305.975     474.623       5.174
  H     -307.511     475.450       5.278
  H     -307.465     473.712       5.112

 6  7  8  9  10  11  12  13  14  15  26  29  33  34 0
 6-311+G(2d,p)
 ****
 36  38  39  40  41 0
 6-311+G(2d,p)
 ****
 1  2  3  4  5  16  17  18  19  20  21  22  23  24  25 0
 3-21G
 ****
 27  28  30  31  32  35  37  42  43  44  45  46  47 0
 3-21G
 ****
 48  49 0
 3-21G
 ****


