%nproc=1
%NoSave
%Mem=1900MB
#P OB98/GEN NMR

erre ene a

0 1
  C       79.887    -183.546    -429.678
  O       78.818    -182.807    -430.237
  H       80.307    -184.194    -430.451
  H       79.533    -184.170    -428.853
  H       80.673    -182.872    -429.325
  P       78.003    -181.807    -429.288
  C       76.458    -183.692    -428.428
  O       77.422    -182.703    -428.090
  C       75.404    -183.810    -427.328
  O       76.022    -184.139    -426.069
  C       74.603    -182.528    -427.093
  O       73.561    -182.407    -428.047
  C       74.081    -182.784    -425.689
  O       72.982    -183.716    -425.743
  C       75.296    -183.450    -425.015
  N       76.856    -181.629    -420.539
  C       75.803    -182.471    -420.834
  N       75.037    -182.861    -419.790
  N       75.517    -182.886    -422.041
  C       76.322    -182.360    -422.992
  C       77.390    -181.503    -422.828
  C       77.737    -181.105    -421.474
  O       78.677    -180.381    -421.171
  N       77.915    -181.111    -424.031
  C       77.201    -181.774    -424.924
  N       76.216    -182.540    -424.344
  O       76.972    -180.953    -429.963
  O       79.135    -180.930    -428.574
  H       72.594    -183.754    -424.850
  H       79.316    -180.113    -429.074
  H       77.022    -181.335    -419.590
  H       77.358    -181.737    -425.995
  H       75.002    -184.201    -424.274
  H       73.716    -181.881    -425.201
  H       75.113    -182.458    -418.869
  H       75.252    -181.644    -427.074
  H       74.222    -183.430    -419.997
  H       74.741    -184.643    -427.584
  H       76.988    -184.644    -428.547
  H       75.972    -183.446    -429.376
  P       73.360    -181.061    -428.903
  C       71.922    -180.115    -426.972
  O       73.035    -179.916    -427.826
  O       72.372    -181.166    -430.012
  O       74.832    -180.664    -429.372
  H       75.114    -181.125    -430.205
  H       71.826    -179.279    -426.311
  H       72.067    -181.007    -426.400
  H       71.033    -180.209    -427.560

 6  7  8  9  10  11  12  13  14  15  26  29  33  34 0
 6-311+G(2d,p)
 ****
 36  38  39  40  41 0
 6-311+G(2d,p)
 ****
 1  2  3  4  5  16  17  18  19  20  21  22  23  24  25 0
 3-21G
 ****
 27  28  30  31  32  35  37  42  43  44  45  46  47 0
 3-21G
 ****
 48  49 0
 3-21G
 ****


