%nproc=1
%NoSave
%Mem=1900MB
#P OB98/GEN NMR

erre ene a

0 1
  C     1246.511     -35.193     291.771
  O     1245.113     -34.975     291.725
  H     1246.690     -36.267     291.889
  H     1246.942     -34.664     292.620
  H     1246.988     -34.858     290.842
  P     1244.635     -33.494     291.337
  C     1242.791     -33.405     293.170
  O     1243.086     -33.383     291.780
  C     1241.522     -32.592     293.450
  O     1241.712     -31.214     293.044
  C     1240.277     -33.087     292.709
  O     1239.663     -34.168     293.391
  C     1239.417     -31.845     292.763
  O     1238.839     -31.706     294.060
  C     1240.440     -30.721     292.507
  N     1238.362     -28.399     288.519
  C     1237.875     -28.580     289.799
  N     1236.641     -28.067     290.053
  N     1238.500     -29.216     290.751
  C     1239.723     -29.664     290.357
  C     1240.316     -29.555     289.116
  C     1239.596     -28.863     288.076
  O     1239.977     -28.648     286.937
  N     1241.560     -30.146     289.098
  C     1241.704     -30.636     290.311
  N     1240.618     -30.369     291.110
  O     1244.557     -33.528     289.734
  O     1245.523     -32.389     291.816
  H     1238.216     -30.952     294.018
  H     1244.830     -32.650     289.386
  H     1237.807     -27.929     287.817
  H     1242.568     -31.175     290.665
  H     1240.207     -29.802     293.049
  H     1238.588     -31.869     292.043
  H     1236.075     -27.620     289.359
  H     1240.507     -33.339     291.660
  H     1236.276     -28.151     291.005
  H     1241.360     -32.600     294.537
  H     1243.627     -32.970     293.725
  H     1242.638     -34.444     293.484
  P     1239.553     -35.576     292.611
  C     1236.962     -35.666     292.881
  O     1238.231     -36.276     293.160
  O     1240.743     -36.435     293.261
  O     1239.680     -35.481     291.121
  H     1241.011     -37.152     292.656
  H     1236.180     -36.254     293.315
  H     1236.819     -35.609     291.822
  H     1236.941     -34.681     293.298

 6  7  8  9  10  11  12  13  14  15  26  29  33  34 0
 6-311+G(2d,p)
 ****
 36  38  39  40  41 0
 6-311+G(2d,p)
 ****
 1  2  3  4  5  16  17  18  19  20  21  22  23  24  25 0
 3-21G
 ****
 27  28  30  31  32  35  37  42  43  44  45  46  47 0
 3-21G
 ****
 48  49 0
 3-21G
 ****


