%nproc=1
%NoSave
%Mem=1900MB
#P OB98/GEN NMR

erre ene a

0 1
  C      148.561      26.303    -344.295
  O      147.326      25.996    -344.917
  P      146.136      27.074    -344.973
  C      147.109      28.166    -347.105
  O      146.761      28.338    -345.740
  C      146.335      29.158    -347.967
  O      144.984      28.694    -348.148
  C      146.219      30.557    -347.371
  O      147.432      31.276    -347.512
  C      145.033      31.107    -348.154
  O      145.454      31.543    -349.457
  C      144.134      29.858    -348.288
  N      143.048      29.837    -347.316
  C      141.858      30.468    -347.695
  O      141.748      31.000    -348.799
  N      140.797      30.452    -346.826
  C      140.919      29.880    -345.666
  N      139.814      29.834    -344.871
  C      142.171      29.254    -345.204
  C      143.180      29.262    -346.072
  O      145.513      27.388    -343.657
  O      145.115      26.488    -346.050
  H      145.886      30.779    -349.884
  H      144.440      25.878    -345.664
  H      142.226      28.800    -344.224
  H      144.127      28.805    -345.816
  H      143.708      29.805    -349.297
  H      144.538      31.949    -347.662
  H      145.962      30.497    -346.307
  H      146.817      29.206    -348.956
  H      138.939      30.119    -345.298
  H      146.844      27.146    -347.406
  H      139.740      29.177    -344.107
  H      148.190      28.300    -347.221
  P      147.579      32.652    -346.702
  C      149.348      31.925    -344.951
  O      147.991      32.238    -345.205
  O      146.069      33.166    -346.574
  O      148.467      33.662    -347.352
  H      145.892      33.865    -347.229
  H      149.501      31.899    -343.869
  H      150.009      32.680    -345.384
  H      149.587      30.941    -345.363
  H      149.215      25.459    -344.364
  H      148.392      26.540    -343.265
  H      149.009      27.142    -344.786

 3  4  5  6  7  8  9  10  11  12  13  23  27  28  29  30  32 0
 6-311+G(2d,p)
 ****
 34  35 0
 6-311+G(2d,p)
 ****
 1  2  14  15  16  17  18  19  20  21  22  24  25  26 0
 3-21G
 ****
 31  33  36  37  38  39  40  41  42  43  44  45  46 0
 3-21G
 ****


