%nproc=1
%NoSave
%Mem=1900MB
#P OB98/GEN NMR

erre ene a

0 1
  C      -71.055     -22.482      76.091
  O      -72.108     -21.675      76.574
  H      -70.105     -22.034      76.391
  H      -71.092     -22.524      75.000
  H      -71.109     -23.492      76.504
  P      -73.604     -22.246      76.530
  C      -73.478     -22.843      79.036
  O      -73.716     -23.319      77.719
  C      -73.299     -24.008      80.013
  O      -72.267     -24.898      79.498
  C      -72.872     -23.579      81.424
  O      -73.420     -24.531      82.345
  C      -71.366     -23.726      81.349
  O      -70.785     -23.769      82.633
  C      -71.244     -24.999      80.508
  N      -69.912     -25.161      79.928
  C      -69.228     -26.321      80.261
  O      -69.677     -27.173      81.029
  N      -67.980     -26.461      79.721
  C      -67.340     -25.538      78.946
  O      -66.207     -25.700      78.514
  C      -68.096     -24.308      78.661
  C      -69.330     -24.178      79.155
  O      -74.071     -22.738      75.202
  O      -74.504     -21.037      77.069
  H      -71.282     -24.388      83.209
  H      -75.390     -21.071      76.662
  H      -67.474     -27.302      79.945
  H      -67.614     -23.552      78.057
  H      -69.912     -23.284      78.963
  H      -71.458     -25.887      81.117
  H      -70.922     -22.876      80.820
  H      -73.194     -22.568      81.682
  H      -74.230     -24.587      80.041
  H      -74.339     -22.236      79.335
  H      -72.582     -22.214      79.040
  P      -74.908     -24.394      82.929
  C      -75.789     -26.690      82.164
  O      -75.899     -25.277      82.027
  O      -75.360     -22.985      83.134
  O      -74.873     -25.185      84.322
  H      -75.535     -24.809      84.930
  H      -76.495     -27.167      81.517
  H      -75.990     -26.967      83.178
  H      -74.799     -26.998      81.900

 6  7  8  9  10  11  12  13  14  15  16  26  31  32  33  34  35 0
 6-311+G(2d,p)
 ****
 36  37 0
 6-311+G(2d,p)
 ****
 1  2  3  4  5  17  18  19  20  21  22  23  24  25 0
 3-21G
 ****
 27  28  29  30  38  39  40  41  42  43  44  45 0
 3-21G
 ****


