%nproc=1
%NoSave
%Mem=1900MB
#P OB98/GEN NMR

erre ene a

0 1
  C      -59.727      41.040     446.112
  O      -60.038      42.228     445.411
  H      -58.650      40.868     446.050
  H      -60.248      40.189     445.666
  H      -60.007      41.140     447.165
  P      -61.586      42.645     445.354
  C      -60.888      45.014     444.579
  O      -61.638      43.842     444.287
  C      -60.781      45.904     443.340
  O      -59.769      45.402     442.452
  C      -62.063      45.992     442.520
  O      -62.940      46.961     443.069
  C      -61.512      46.437     441.173
  O      -61.285      47.861     441.194
  C      -60.170      45.693     441.091
  N      -58.506      43.287     436.868
  C      -58.448      44.583     437.245
  N      -58.958      45.161     438.353
  C      -59.576      44.253     439.125
  C      -59.718      42.896     438.866
  C      -59.143      42.415     437.682
  N      -59.208      41.090     437.300
  N      -60.418      42.277     439.883
  C      -60.642      43.233     440.762
  N      -60.183      44.453     440.333
  O      -62.235      42.908     446.670
  O      -62.201      41.418     444.526
  H      -62.145      48.284     441.030
  H      -61.604      41.162     443.800
  H      -57.923      45.246     436.561
  H      -61.109      43.090     441.731
  H      -59.389      46.318     440.646
  H      -62.202      46.239     440.350
  H      -62.542      45.011     442.404
  H      -60.464      46.901     443.670
  H      -59.885      44.745     444.926
  H      -58.942      40.871     436.353
  H      -59.793      40.471     437.844
  H      -61.403      45.547     445.387
  P      -64.391      46.552     443.616
  C      -64.512      48.133     445.641
  O      -64.961      47.881     444.315
  O      -64.414      45.319     444.448
  O      -65.291      46.431     442.300
  H      -66.107      45.933     442.493
  H      -64.954      49.038     446.001
  H      -63.446      48.231     445.644
  H      -64.797      47.320     446.275

 6  7  8  9  10  11  12  13  14  15  25  28  32  33  34  35 0
 6-311+G(2d,p)
 ****
 36  39  40 0
 6-311+G(2d,p)
 ****
 1  2  3  4  5  16  17  18  19  20  21  22  23  24 0
 3-21G
 ****
 26  27  29  30  31  37  38  41  42  43  44  45  46  47 0
 3-21G
 ****
 48 0
 3-21G
 ****


