%nproc=1
%NoSave
%Mem=1900MB
#P OB98/GEN NMR

erre ene a

0 1
  C     -209.901      58.850     373.144
  O     -209.090      59.552     374.067
  P     -208.542      61.023     373.742
  C     -206.176      60.410     374.547
  O     -206.975      60.823     373.446
  C     -205.201      59.324     374.106
  O     -205.960      58.154     373.716
  C     -204.327      59.658     372.896
  O     -203.156      60.395     373.196
  C     -203.939      58.263     372.428
  O     -202.879      57.749     373.258
  C     -205.230      57.469     372.668
  N     -205.709      55.310     368.052
  C     -204.782      55.170     369.025
  N     -204.713      55.795     370.221
  C     -205.767      56.610     370.387
  C     -206.790      56.858     369.485
  C     -206.739      56.160     368.269
  N     -207.700      56.289     367.286
  N     -207.687      57.778     370.007
  C     -207.209      58.069     371.198
  N     -206.056      57.386     371.478
  O     -208.880      62.052     374.762
  O     -209.143      61.355     372.301
  H     -202.071      58.246     373.024
  H     -209.085      62.318     372.126
  H     -203.983      54.459     368.819
  H     -207.657      58.764     371.881
  H     -205.036      56.446     373.020
  H     -203.578      58.242     371.398
  H     -204.917      60.148     372.106
  H     -204.575      59.049     374.968
  H     -206.837      60.002     375.321
  H     -207.653      55.657     366.503
  H     -208.546      56.794     367.513
  H     -205.645      61.269     374.966
  P     -202.992      61.836     372.497
  C     -201.433      60.685     370.740
  O     -202.529      61.539     370.993
  O     -202.140      62.799     373.257
  O     -204.513      62.324     372.325
  H     -205.039      61.807     371.697
  H     -201.384      60.483     369.666
  H     -201.549      59.734     371.265
  H     -200.501      61.168     371.047
  H     -210.158      57.894     373.550
  H     -209.365      58.716     372.228
  H     -210.794      59.409     372.956

 3  4  5  6  7  8  9  10  11  12  22  25  29  30  31  32 0
 6-311+G(2d,p)
 ****
 33  36  37 0
 6-311+G(2d,p)
 ****
 1  2  13  14  15  16  17  18  19  20  21  23  24  26 0
 3-21G
 ****
 27  28  34  35  38  39  40  41  42  43  44  45  46  47  48 0
 3-21G
 ****


