%nproc=1
%NoSave
%Mem=1900MB
#P OB98/GEN NMR

erre ene a

0 1
  C     -388.641     204.216     564.630
  O     -387.602     203.252     564.601
  H     -388.710     204.683     563.644
  H     -388.415     204.988     565.369
  H     -389.595     203.739     564.864
  P     -387.348     202.433     565.958
  C     -384.923     203.156     566.563
  O     -385.768     202.148     566.023
  C     -383.470     202.703     566.493
  O     -383.270     201.579     567.385
  C     -383.039     202.212     565.123
  O     -382.762     203.277     564.228
  C     -381.812     201.378     565.475
  O     -380.643     202.197     565.612
  C     -382.204     200.774     566.827
  N     -380.639     195.912     566.906
  C     -379.992     197.069     567.151
  N     -380.482     198.329     567.120
  C     -381.798     198.312     566.827
  C     -382.590     197.211     566.558
  C     -381.961     195.956     566.607
  N     -382.605     194.773     566.335
  N     -383.882     197.603     566.254
  C     -383.872     198.912     566.354
  N     -382.635     199.393     566.702
  O     -387.982     200.997     565.638
  O     -387.938     203.040     567.187
  H     -380.849     202.852     566.299
  H     -388.869     200.936     566.038
  H     -378.937     196.980     567.396
  H     -384.721     199.564     566.178
  H     -381.374     200.787     567.545
  H     -381.612     200.637     564.703
  H     -383.808     201.546     564.696
  H     -382.824     203.526     566.837
  H     -385.196     203.344     567.610
  H     -385.065     204.082     565.990
  H     -382.079     193.919     566.323
  H     -383.566     194.808     566.003
  P     -383.368     203.195     562.749
  C     -381.092     203.325     561.477
  O     -382.336     203.941     561.776
  O     -384.631     204.177     562.794
  O     -383.750     201.822     562.314
  H     -385.348     203.824     562.238
  H     -380.531     203.955     560.819
  H     -381.266     202.381     561.005
  H     -380.542     203.175     562.382

 6  7  8  9  10  11  12  13  14  15  25  28  32  33  34  35 0
 6-311+G(2d,p)
 ****
 36  37  40 0
 6-311+G(2d,p)
 ****
 1  2  3  4  5  16  17  18  19  20  21  22  23  24 0
 3-21G
 ****
 26  27  29  30  31  38  39 41  42  43  44  45  46  47  48 0
 3-21G
 ****


