%nproc=1
%NoSave
%Mem=1900MB
#P OB98/GEN NMR

erre ene a

0 1
  C      421.403    -130.812    -154.464
  O      421.051    -130.743    -153.087
  P      421.773    -129.813    -152.008
  C      423.560    -131.435    -150.975
  O      423.273    -130.331    -151.829
  C      425.065    -131.692    -150.801
  O      425.633    -132.117    -152.070
  C      425.798    -130.405    -150.412
  O      425.828    -129.989    -149.062
  C      427.169    -130.523    -151.058
  O      428.143    -131.065    -150.174
  C      426.916    -131.480    -152.230
  N      429.838    -130.131    -156.212
  C      430.202    -130.747    -155.036
  N      431.520    -130.997    -154.862
  N      429.352    -131.080    -154.098
  C      428.083    -130.694    -154.351
  C      427.602    -130.053    -155.469
  C      428.539    -129.743    -156.532
  O      428.264    -129.203    -157.600
  N      426.259    -129.798    -155.370
  C      425.927    -130.256    -154.182
  N      427.003    -130.821    -153.525
  O      421.000    -129.541    -150.764
  O      421.946    -128.408    -152.791
  H      427.768    -131.866    -149.763
  H      421.880    -127.703    -152.115
  H      430.528    -129.915    -156.915
  H      424.935    -130.221    -153.749
  H      427.664    -132.280    -152.246
  H      427.538    -129.539    -151.366
  H      432.230    -130.664    -155.494
  H      425.291    -129.581    -150.942
  H      431.812    -131.255    -153.922
  H      425.243    -132.519    -150.105
  H      423.069    -132.304    -151.415
  H      423.100    -131.276    -149.999
  P      425.054    -128.733    -148.434
  C      426.636    -127.062    -149.566
  O      425.287    -127.475    -149.396
  O      425.920    -128.350    -147.144
  O      423.628    -128.989    -148.065
  H      425.402    -127.778    -146.544
  H      426.649    -126.046    -149.965
  H      427.144    -127.733    -150.263
  H      427.172    -127.070    -148.610
  H      420.763    -131.510    -154.961
  H      422.420    -131.132    -154.557
  H      421.291    -129.846    -154.910

 3  4  5  6  7  8  9  10  11  12  23  26  30  31 0
 6-311+G(2d,p)
 ****
 33  35  36  37  38 0
 6-311+G(2d,p)
 ****
 1  2  13  14  15  16  17  18  19  20  21  22  24  25 0
 3-21G
 ****
 27  28  29  32  34  39  40  41  42  43  44  45  46  47  48  49 0
 3-21G
 ****


