%nproc=1
%NoSave
%Mem=1900MB
#P OB98/GEN NMR

erre ene a

0 1
  C      -79.212    -121.411     115.323
  O      -79.322    -119.988     115.195
  P      -78.027    -119.045     115.097
  C      -76.555    -117.587     116.616
  O      -77.513    -118.638     116.566
  C      -76.457    -116.924     117.997
  O      -77.657    -116.159     118.295
  C      -76.253    -117.894     119.167
  O      -75.483    -117.184     120.140
  C      -77.675    -118.102     119.661
  O      -77.747    -118.612     120.984
  C      -78.233    -116.691     119.502
  N      -82.478    -114.479     121.324
  C      -81.174    -114.151     121.443
  N      -80.104    -114.766     120.898
  C      -80.484    -115.799     120.129
  C      -81.776    -116.247     119.905
  C      -82.807    -115.543     120.554
  N      -84.134    -115.900     120.476
  N      -81.775    -117.357     119.082
  C      -80.501    -117.578     118.827
  N      -79.681    -116.662     119.432
  O      -78.184    -117.883     114.169
  O      -76.873    -120.017     114.561
  H      -78.686    -118.680     121.235
  H      -76.382    -119.567     113.846
  H      -80.959    -113.285     122.062
  H      -80.116    -118.396     118.230
  H      -77.923    -116.044     120.332
  H      -78.184    -118.816     119.002
  H      -75.759    -118.826     118.882
  H      -75.631    -116.202     117.956
  H      -76.830    -116.832     115.871
  H      -84.788    -115.391     121.051
  H      -84.384    -116.763     120.014
  H      -75.576    -117.992     116.333
  P      -73.906    -117.418     120.302
  C      -72.478    -119.337     121.206
  O      -73.727    -118.671     121.279
  O      -73.129    -116.203     120.690
  O      -73.435    -117.986     118.880
  H      -72.471    -117.872     118.787
  H      -72.447    -119.960     120.306
  H      -72.361    -119.975     122.086
  H      -71.652    -118.619     121.177
  H      -80.190    -121.841     115.371
  H      -78.673    -121.648     116.217
  H      -78.690    -121.806     114.477

 3  4  5  6  7  8  9  10  11  12  22  25  29  30  31  32 0
 6-311+G(2d,p)
 ****
 33  36  37 0
 6-311+G(2d,p)
 ****
 1  2  13  14  15  16  17  18  19  20  21  23  24  26 0
 3-21G
 ****
 27  28  34  35  38  39  40  41  42  43  44  45  46  47  48 0
 3-21G
 ****


