%nproc=1
%NoSave
%Mem=1900MB
#P OB98/GEN NMR

erre ene a

0 1
  C      263.668     142.275    -139.194
  O      262.440     141.697    -139.585
  H      264.231     141.537    -138.613
  H      263.490     143.151    -138.566
  H      264.262     142.556    -140.066
  P      261.492     142.507    -140.592
  C      259.838     142.934    -138.661
  O      260.618     143.512    -139.701
  C      259.133     144.031    -137.867
  O      260.097     144.999    -137.397
  C      258.125     144.827    -138.684
  O      256.929     144.098    -138.897
  C      257.974     146.070    -137.821
  O      257.060     145.844    -136.741
  C      259.412     146.267    -137.286
  N      260.126     147.320    -138.009
  C      260.006     148.607    -137.495
  O      259.353     148.879    -136.489
  N      260.619     149.596    -138.218
  C      261.200     149.438    -139.445
  O      261.512     150.381    -140.167
  C      261.353     148.053    -139.906
  C      260.807     147.069    -139.186
  O      260.716     141.677    -141.560
  O      262.505     143.491    -141.350
  H      262.698     143.132    -142.237
  H      256.980     146.701    -136.275
  H      260.500     150.538    -137.876
  H      261.872     147.878    -140.840
  H      260.876     146.039    -139.521
  H      259.392     146.524    -136.222
  H      257.605     146.920    -138.400
  H      258.566     145.116    -139.644
  H      258.653     143.575    -136.992
  H      260.504     142.373    -137.995
  H      259.110     142.244    -139.101
  P      256.193     144.149    -140.316
  C      254.509     145.884    -139.442
  O      255.464     145.572    -140.453
  O      255.330     142.972    -140.629
  O      257.394     144.266    -141.372
  H      257.267     143.589    -142.066
  H      254.090     146.850    -139.633
  H      254.990     145.887    -138.486
  H      253.731     145.150    -139.448

 6  7  8  9  10  11  12  13  14  15  16  27  31  32  33  34  35 0
 6-311+G(2d,p)
 ****
 36  37 0
 6-311+G(2d,p)
 ****
 1  2  3  4  5  17  18  19  20  21  22  23  24  25 0
 3-21G
 ****
 26  28  29  30  38  39  40  41  42  43  44  45 0
 3-21G
 ****


