%nproc=1
%NoSave
%Mem=1900MB
#P OB98/GEN NMR

erre ene a

0 1
  C     1494.263    -338.996     -69.149
  O     1494.576    -338.403     -70.398
  H     1493.249    -338.688     -68.860
  H     1494.966    -338.649     -68.384
  H     1494.302    -340.089     -69.223
  P     1495.923    -338.889     -71.123
  C     1494.710    -339.157     -73.411
  O     1495.751    -338.516     -72.682
  C     1494.076    -338.156     -74.382
  O     1493.011    -337.426     -73.672
  C     1495.051    -337.125     -74.950
  O     1494.693    -336.835     -76.298
  C     1494.771    -335.891     -74.091
  O     1495.153    -334.664     -74.700
  C     1493.261    -336.022     -73.870
  N     1492.792    -335.240     -72.728
  C     1492.888    -333.860     -72.817
  O     1493.262    -333.233     -73.811
  N     1492.524    -333.165     -71.683
  C     1492.098    -333.713     -70.504
  O     1491.808    -333.037     -69.525
  C     1492.030    -335.182     -70.478
  C     1492.364    -335.875     -71.572
  O     1495.783    -340.484     -71.103
  O     1497.194    -338.419     -70.509
  H     1496.183    -340.860     -70.284
  H     1496.132    -334.650     -74.750
  H     1492.594    -332.153     -71.734
  H     1491.715    -335.657     -69.549
  H     1492.339    -336.953     -71.575
  H     1492.719    -335.723     -74.774
  H     1495.299    -335.972     -73.135
  H     1496.103    -337.428     -74.894
  H     1493.587    -338.717     -75.195
  H     1493.944    -339.508     -72.707
  H     1495.121    -340.005     -73.958
  P     1495.759    -336.029     -77.194
  C     1496.401    -337.996     -78.792
  O     1495.736    -336.750     -78.619
  O     1497.137    -336.492     -76.520
  O     1495.516    -334.554     -77.200
  H     1497.106    -337.411     -76.213
  H     1496.281    -338.327     -79.802
  H     1495.980    -338.720     -78.127
  H     1497.442    -337.877     -78.577

 6  7  8  9  10  11  12  13  14  15  16  27  31  32  33  34  35 0
 6-311+G(2d,p)
 ****
 36  37 0
 6-311+G(2d,p)
 ****
 1  2  3  4  5  17  18  19  20  21  22  23  24  25 0
 3-21G
 ****
 26  28  29  30  38  39  40  41  42  43  44  45 0
 3-21G
 ****


