%nproc=1
%NoSave
%Mem=1900MB
#P OB98/GEN NMR

erre ene a

0 1
  C      -59.564     -83.264     -96.077
  O      -58.916     -82.597     -97.141
  P      -59.417     -82.751     -98.657
  C      -57.406     -84.222     -99.297
  O      -58.819     -84.148     -99.174
  C      -56.994     -85.020    -100.534
  O      -57.405     -86.408    -100.378
  C      -57.592     -84.508    -101.854
  O      -56.603     -84.751    -102.863
  C      -58.787     -85.421    -102.049
  O      -59.248     -85.444    -103.394
  C      -58.226     -86.748    -101.516
  N      -59.287     -87.691    -101.171
  C      -59.636     -88.627    -102.148
  O      -59.115     -88.586    -103.265
  N      -60.605     -89.555    -101.857
  C      -61.242     -89.483    -100.730
  N      -62.187     -90.433    -100.495
  C      -60.991     -88.433     -99.726
  C      -60.001     -87.587    -100.002
  O      -59.136     -81.583     -99.541
  O      -60.977     -83.077     -98.507
  H      -59.776     -86.260    -103.526
  H      -61.484     -82.253     -98.301
  H      -61.586     -88.378     -98.825
  H      -59.742     -86.783     -99.323
  H      -57.574     -87.218    -102.262
  H      -59.617     -85.080    -101.415
  H      -57.866     -83.452    -101.830
  H      -55.898     -85.014    -100.591
  H      -62.318     -91.143    -101.205
  H      -57.013     -84.727     -98.409
  H      -62.683     -90.516     -99.617
  H      -56.978     -83.213     -99.325
  P      -56.330     -83.694    -104.035
  C      -57.720     -85.148    -105.620
  O      -57.525     -83.848    -105.092
  O      -54.958     -83.739    -104.623
  O      -56.625     -82.269    -103.360
  H      -56.245     -81.562    -103.915
  H      -58.706     -85.198    -106.094
  H      -57.666     -85.905    -104.833
  H      -56.955     -85.354    -106.374
  H      -59.074     -83.026     -95.156
  H      -59.523     -84.321     -96.241
  H      -60.586     -82.950     -96.029

 3  4  5  6  7  8  9  10  11  12  13  23  27  28  29  30  32 0
 6-311+G(2d,p)
 ****
 34  35 0
 6-311+G(2d,p)
 ****
 1  2  14  15  16  17  18  19  20  21  22  24  25  26 0
 3-21G
 ****
 31  33  36  37  38  39  40  41  42  43  44  45  46 0
 3-21G
 ****


