%nproc=1
%NoSave
%Mem=1900MB
#P OB98/GEN NMR

erre ene a

0 1
  C       31.680     724.974     164.696
  O       31.384     725.457     163.407
  H       32.763     724.922     164.813
  H       31.266     723.966     164.814
  H       31.272     725.626     165.474
  P       29.927     726.057     163.121
  C       28.728     723.878     162.425
  O       29.222     725.149     162.004
  C       28.124     723.094     161.262
  O       27.060     723.856     160.658
  C       29.143     722.810     160.155
  O       29.908     721.628     160.347
  C       28.246     722.684     158.924
  O       27.778     721.336     158.754
  C       27.081     723.623     159.240
  N       24.626     727.314     156.696
  C       24.150     726.087     157.112
  N       22.873     725.798     156.774
  N       24.869     725.224     157.783
  C       26.156     725.615     157.958
  C       26.745     726.795     157.570
  C       25.917     727.772     156.895
  O       26.289     728.881     156.517
  N       28.084     726.817     157.880
  C       28.315     725.617     158.376
  N       27.161     724.883     158.515
  O       30.235     727.414     162.319
  O       29.100     726.340     164.337
  H       27.630     720.956     159.641
  H       29.545     728.073     162.517
  H       24.014     727.947     156.206
  H       29.286     725.248     158.698
  H       26.115     723.171     158.978
  H       28.803     722.948     158.011
  H       22.306     726.388     156.190
  H       29.812     723.662     160.009
  H       22.545     724.839     156.893
  H       27.676     722.167     161.645
  H       27.962     724.081     163.178
  H       29.522     723.301     162.910
  P       31.385     721.694     160.959
  C       32.321     723.006     158.884
  O       32.413     721.901     159.760
  O       31.646     720.183     161.416
  O       31.570     722.665     162.083
  H       31.489     720.082     162.375
  H       33.104     722.951     158.157
  H       32.417     723.913     159.443
  H       31.373     722.991     158.389

 6  7  8  9  10  11  12  13  14  15  26  29  33  34 0
 6-311+G(2d,p)
 ****
 36  38  39  40  41 0
 6-311+G(2d,p)
 ****
 1  2  3  4  5  16  17  18  19  20  21  22  23  24  25 0
 3-21G
 ****
 27  28  30  31  32  35  37  42  43  44  45  46  47 0
 3-21G
 ****
 48  49 0
 3-21G
 ****


