%nproc=1
%NoSave
%Mem=1900MB
#P OB98/GEN NMR

erre ene a

0 1
  C     -888.180    1286.155    -638.722
  O     -888.450    1285.084    -639.588
  H     -887.340    1286.735    -639.129
  H     -887.890    1285.775    -637.739
  H     -889.040    1286.823    -638.614
  P     -889.870    1284.349    -639.488
  C     -891.170    1284.866    -641.650
  O     -890.930    1285.237    -640.303
  C     -892.670    1284.871    -641.986
  O     -893.350    1283.824    -641.246
  C     -893.360    1286.175    -641.595
  O     -893.250    1287.220    -642.548
  C     -894.800    1285.734    -641.422
  O     -895.490    1285.742    -642.688
  C     -894.660    1284.307    -640.900
  N     -897.910    1284.729    -636.982
  C     -898.120    1285.021    -638.317
  N     -899.320    1285.540    -638.633
  N     -897.210    1284.833    -639.243
  C     -896.020    1284.386    -638.766
  C     -895.700    1284.086    -637.465
  C     -896.730    1284.247    -636.451
  O     -896.580    1284.012    -635.254
  N     -894.400    1283.664    -637.358
  C     -893.920    1283.787    -638.574
  N     -894.880    1284.205    -639.469
  O     -890.310    1284.597    -637.966
  O     -889.870    1282.888    -639.820
  H     -894.980    1285.192    -643.321
  H     -890.910    1283.888    -637.671
  H     -898.660    1284.861    -636.311
  H     -892.890    1283.574    -638.872
  H     -895.390    1283.628    -641.384
  H     -895.360    1286.404    -640.754
  H     -900.000    1285.816    -637.940
  H     -892.980    1286.527    -640.627
  H     -899.410    1286.014    -639.543
  H     -892.800    1284.649    -643.052
  H     -890.760    1283.864    -641.787
  H     -890.630    1285.533    -642.330
  P     -893.160    1288.752    -642.060
  C     -890.650    1289.332    -642.456
  O     -891.660    1288.982    -641.531
  O     -894.040    1288.733    -640.718
  O     -893.660    1289.745    -643.042
  H     -894.950    1289.034    -640.908
  H     -889.719    1289.446    -641.941
  H     -890.908    1290.253    -642.935
  H     -890.558    1288.561    -643.192

 6  7  8  9  10  11  12  13  14  15  26  29  33  34 0
 6-311+G(2d,p)
 ****
 36  38  39  40  41 0
 6-311+G(2d,p)
 ****
 1  2  3  4  5  16  17  18  19  20  21  22  23  24  25 0
 3-21G
 ****
 27  28  30  31  32  35  37  42  43  44  45  46  47 0
 3-21G
 ****
 48  49 0
 3-21G
 ****


