%nproc=1
%NoSave
%Mem=1900MB
#P OB98/GEN NMR

erre ene a

0 1
  C      509.201    2497.324     481.996
  O      510.419    2496.646     481.705
  P      510.460    2495.065     482.110
  C      511.447    2494.299     479.828
  O      510.351    2494.217     480.771
  C      511.168    2493.505     478.569
  O      511.048    2492.080     478.881
  C      509.874    2493.908     477.838
  O      510.104    2493.770     476.423
  C      508.895    2492.869     478.299
  O      507.754    2492.808     477.419
  C      509.786    2491.642     478.301
  N      506.760    2487.583     478.085
  C      506.976    2488.606     477.151
  N      506.329    2488.458     475.950
  N      507.753    2489.625     477.372
  C      508.355    2489.573     478.567
  C      508.236    2488.648     479.570
  C      507.336    2487.532     479.323
  O      507.077    2486.637     480.129
  N      509.018    2488.944     480.662
  C      509.554    2490.113     480.323
  N      509.260    2490.523     479.044
  O      509.025    2494.864     482.811
  O      511.592    2494.702     483.023
  H      508.097    2492.880     476.504
  H      509.125    2494.861     483.773
  H      506.109    2486.834     477.858
  H      510.212    2490.705     480.947
  H      509.971    2491.255     477.305
  H      508.515    2493.062     479.284
  H      505.757    2487.669     475.708
  H      509.529    2494.946     478.054
  H      506.532    2489.159     475.245
  H      512.036    2493.646     477.893
  H      512.358    2493.891     480.335
  H      511.651    2495.368     479.631
  P      510.938    2494.910     475.673
  C      512.976    2493.343     475.587
  O      512.477    2494.615     475.870
  O      510.645    2496.206     476.613
  O      510.479    2495.131     474.276
  H      510.523    2496.977     476.016
  H      514.039    2493.407     475.362
  H      512.424    2492.873     474.795
  H      512.900    2492.719     476.508
  H      509.281    2498.347     481.693
  H      509.010    2497.278     483.048
  H      508.397    2496.857     481.466

 3  4  5  6  7  8  9  10  11  12  23  26  30  31 0
 6-311+G(2d,p)
 ****
 33  35  36  37  38 0
 6-311+G(2d,p)
 ****
 1  2  13  14  15  16  17  18  19  20  21  22  24  25 0
 3-21G
 ****
 27  28  29  32  34  39  40  41  42  43  44  45  46  47  48  49 0
 3-21G
 ****


