%nproc=1
%NoSave
%Mem=1900MB
#P OB98/GEN NMR

erre ene a

0 1
  C      174.174     112.981      71.276
  O      174.488     113.320      72.613
  H      175.070     112.577      70.798
  H      173.849     113.871      70.731
  H      173.388     112.222      71.253
  P      173.290     113.919      73.497
  C      172.433     111.664      74.486
  O      173.091     112.900      74.719
  C      171.997     111.031      75.814
  O      171.107     109.912      75.527
  C      173.162     110.471      76.647
  O      172.785     110.540      78.033
  C      173.189     109.019      76.200
  O      173.971     108.235      77.073
  C      171.689     108.742      76.146
  N      170.747     103.727      76.457
  C      170.997     104.655      77.404
  N      171.228     105.973      77.247
  C      171.156     106.317      75.949
  C      170.899     105.485      74.873
  C      170.690     104.126      75.163
  N      170.441     103.178      74.199
  N      170.910     106.203      73.688
  C      171.168     107.444      74.049
  N      171.332     107.559      75.401
  O      172.001     113.675      72.582
  O      173.437     115.351      73.889
  H      173.830     107.280      76.904
  H      171.804     114.479      72.065
  H      171.023     104.287      78.427
  H      171.256     108.289      73.377
  H      171.256     108.648      77.150
  H      173.640     108.925      75.207
  H      174.101     111.008      76.495
  H      171.412     111.762      76.382
  H      173.127     110.995      73.966
  H      171.553     111.831      73.858
  H      170.319     102.222      74.489
  H      170.414     103.458      73.230
  P      173.175     111.849      78.884
  C      171.396     113.759      78.709
  O      171.825     112.573      79.361
  O      173.699     112.846      77.740
  O      174.219     111.653      79.932
  H      174.350     113.465      78.120
  H      170.485     114.101      79.154
  H      171.232     113.556      77.671
  H      172.148     114.514      78.810

 6  7  8  9  10  11  12  13  14  15  25  28  32  33  34  35 0
 6-311+G(2d,p)
 ****
 36  37  40 0
 6-311+G(2d,p)
 ****
 1  2  3  4  5  16  17  18  19  20  21  22  23  24 0
 3-21G
 ****
 26  27  29  30  31  38  39 41  42  43  44  45  46  47  48 0
 3-21G
 ****


