%nproc=1
%NoSave
%Mem=1900MB
#P OB98/GEN NMR

erre ene a

0 1
  C      181.535     265.104    1423.799
  O      181.047     264.063    1424.626
  H      182.161     264.655    1423.016
  H      182.142     265.800    1424.375
  H      180.706     265.625    1423.315
  P      180.187     264.458    1425.919
  C      178.184     263.194    1424.881
  O      178.644     264.398    1425.487
  C      176.693     263.293    1424.544
  O      175.923     263.138    1425.764
  C      176.291     264.645    1423.922
  O      175.169     264.390    1423.048
  C      175.831     265.420    1425.149
  O      175.114     266.572    1424.796
  C      175.104     264.311    1425.920
  N      174.891     264.655    1427.324
  C      173.602     265.058    1427.664
  O      172.717     265.134    1426.802
  N      173.350     265.417    1428.971
  C      174.310     265.416    1429.830
  N      174.006     265.795    1431.104
  C      175.700     265.052    1429.499
  C      175.925     264.673    1428.227
  O      180.596     265.722    1426.605
  O      180.346     263.194    1426.892
  H      175.693     267.210    1424.327
  H      180.963     263.409    1427.620
  H      176.485     265.097    1430.251
  H      176.910     264.398    1427.882
  H      174.130     264.095    1425.460
  H      176.720     265.767    1425.721
  H      177.094     265.122    1423.360
  H      176.411     262.453    1423.886
  H      173.034     266.048    1431.292
  H      178.351     262.372    1425.592
  H      174.673     265.860    1431.854
  H      178.759     262.984    1423.966
  P      175.256     263.423    1421.785
  C      173.462     261.612    1422.211
  O      174.849     261.935    1422.224
  O      176.563     263.501    1421.034
  O      174.041     263.853    1420.831
  H      174.305     263.686    1419.899
  H      173.329     260.597    1422.523
  H      173.077     261.734    1421.220
  H      172.938     262.262    1422.880

 6  7  8  9  10  11  12  13  14  15  16  26  30  31  32  33  35 0
 6-311+G(2d,p)
 ****
 37  38 0
 6-311+G(2d,p)
 ****
 1  2  3  4  5  17  18  19  20  21  22  23  24  25 0
 3-21G
 ****
 27  28  29  34  36  39  40  41  42  43  44  45  46 0
 3-21G
 ****


