%nproc=1
%NoSave
%Mem=1900MB
#P OB98/GEN NMR

erre ene a

0 1
  C      410.039     130.992     -33.043
  O      409.195     130.038     -32.433
  H      410.776     130.470     -33.660
  H      410.566     131.571     -32.281
  H      409.455     131.661     -33.682
  P      408.038     130.601     -31.476
  C      409.570     130.751     -29.386
  O      408.780     131.458     -30.333
  C      409.772     131.593     -28.128
  O      410.188     130.722     -27.038
  C      410.841     132.688     -28.276
  O      410.413     133.850     -27.558
  C      412.043     132.090     -27.572
  O      412.959     133.085     -27.126
  C      411.358     131.314     -26.448
  N      414.961     130.559     -23.012
  C      414.244     131.701     -23.320
  N      414.524     132.813     -22.612
  N      413.322     131.743     -24.252
  C      413.124     130.553     -24.866
  C      413.774     129.357     -24.657
  C      414.805     129.327     -23.640
  O      415.489     128.356     -23.336
  N      413.307     128.387     -25.511
  C      412.377     128.990     -26.228
  N      412.226     130.303     -25.869
  O      407.537     129.298     -30.690
  O      406.921     131.307     -32.164
  H      413.645     132.641     -26.583
  H      406.591     129.375     -30.454
  H      415.665     130.584     -22.295
  H      411.790     128.528     -27.014
  H      411.039     131.969     -25.626
  H      412.576     131.407     -28.247
  H      415.196     132.846     -21.857
  H      411.052     132.950     -29.313
  H      414.004     133.659     -22.815
  H      408.807     132.026     -27.835
  H      410.542     130.521     -29.834
  H      409.065     129.812     -29.128
  P      409.622     134.980     -28.380
  C      411.611     136.330     -29.357
  O      410.527     135.448     -29.620
  O      409.660     136.238     -27.389
  O      408.214     134.604     -28.717
  H      408.776     136.390     -27.012
  H      412.119     136.553     -30.272
  H      412.292     135.865     -28.675
  H      411.238     137.236     -28.927

 6  7  8  9  10  11  12  13  14  15  26  29  33  34 0
 6-311+G(2d,p)
 ****
 36  38  39  40  41 0
 6-311+G(2d,p)
 ****
 1  2  3  4  5  16  17  18  19  20  21  22  23  24  25 0
 3-21G
 ****
 27  28  30  31  32  35  37  42  43  44  45  46  47 0
 3-21G
 ****
 48  49 0
 3-21G
 ****


