%nproc=1
%NoSave
%Mem=1900MB
#P OB98/GEN NMR

erre ene a

0 1
  C      133.520    -912.030     -50.850
  O      132.894    -910.954     -51.503
  P      131.347    -910.629     -51.227
  C      131.893    -909.301     -49.046
  O      131.199    -910.376     -49.652
  C      130.914    -908.295     -48.424
  O      129.973    -909.041     -47.597
  C      131.551    -907.268     -47.485
  O      130.638    -906.178     -47.312
  C      131.665    -908.046     -46.201
  O      131.809    -907.194     -45.056
  C      130.374    -908.919     -46.208
  N      130.618    -910.253     -45.632
  C      130.641    -910.325     -44.234
  O      130.394    -909.372     -43.497
  N      131.043    -911.539     -43.694
  C      131.443    -912.612     -44.432
  O      132.077    -913.559     -43.964
  C      131.185    -912.551     -45.871
  C      130.809    -911.369     -46.404
  O      130.647    -912.042     -51.461
  O      130.751    -909.570     -52.101
  H      132.002    -907.791     -44.292
  H      130.285    -912.111     -52.369
  H      131.188    -911.549     -42.699
  H      131.351    -913.436     -46.475
  H      130.654    -911.282     -47.486
  H      129.567    -908.442     -45.639
  H      132.542    -908.691     -46.242
  H      132.531    -906.892     -47.829
  H      130.333    -907.798     -49.210
  H      132.515    -908.801     -49.806
  H      132.553    -909.663     -48.272
  P      131.250    -904.700     -47.193
  C      131.054    -904.435     -49.733
  O      131.915    -904.374     -48.626
  O      132.119    -904.431     -46.007
  O      129.937    -903.763     -47.202
  H      130.164    -902.884     -46.839
  H      131.428    -903.726     -50.505
  H      130.026    -904.156     -49.474
  H      131.077    -905.437     -50.160
  H      134.543    -912.089     -51.159
  H      133.018    -912.941     -51.102
  H      133.475    -911.880     -49.792

 3  4  5  6  7  8  9  10  11  12  13  23  28  29  30  31  32 0
 6-311+G(2d,p)
 ****
 33  34 0
 6-311+G(2d,p)
 ****
 1  2  14  15  16  17  18  19  20  21  22  24  25  26  27 0
 3-21G
 ****
 35  36  37  38  39  40  41  42  43  44  45 0
 3-21G
 ****


