%nproc=1
%NoSave
%Mem=1900MB
#P OB98/GEN NMR

erre ene a

0 1
  C       94.087      92.479      53.264
  O       95.035      92.339      52.224
  H       93.513      93.394      53.093
  H       94.598      92.559      54.228
  H       93.401      91.628      53.272
  P       95.861      90.959      52.184
  C       94.645      90.518      49.896
  O       95.850      90.499      50.645
  C       94.827      89.773      48.572
  O       95.648      90.581      47.693
  C       95.500      88.406      48.716
  O       94.907      87.504      47.777
  C       96.945      88.680      48.330
  O       97.608      87.501      47.881
  C       96.778      89.787      47.278
  N       97.983      90.604      47.136
  C       99.178      89.925      46.879
  O       99.191      88.695      46.804
  N      100.338      90.649      46.759
  C      100.322      91.936      46.945
  N      101.511      92.591      46.830
  C       99.090      92.686      47.267
  C       97.971      91.969      47.338
  O       94.840      89.950      52.893
  O       97.209      91.034      52.822
  H       97.548      86.825      48.594
  H       93.917      90.076      52.622
  H       99.129      93.755      47.429
  H       97.021      92.442      47.563
  H       96.537      89.354      46.298
  H       97.498      89.063      49.196
  H       95.427      87.992      49.721
  H       93.845      89.684      48.090
  H      102.334      92.034      46.625
  H       94.338      91.550      49.696
  H      101.624      93.578      47.008
  H       93.866      90.039      50.497
  P       94.394      86.072      48.284
  C       92.402      86.284      49.908
  O       92.813      86.149      48.556
  O       95.198      85.444      49.377
  O       94.468      85.175      46.948
  H       94.780      84.283      47.200
  H       91.334      86.324      49.954
  H       92.810      87.185      50.317
  H       92.752      85.445      50.473

 6  7  8  9  10  11  12  13  14  15  16  26  30  31  32  33  35 0
 6-311+G(2d,p)
 ****
 37  38 0
 6-311+G(2d,p)
 ****
 1  2  3  4  5  17  18  19  20  21  22  23  24  25 0
 3-21G
 ****
 27  28  29  34  36  39  40  41  42  43  44  45  46 0
 3-21G
 ****


