%nproc=1
%NoSave
%Mem=1900MB
#P OB98/GEN NMR

erre ene a

0 1
  C       99.526     898.021     388.449
  O       99.859     898.469     389.753
  P       98.662     899.020     390.680
  C       99.751     901.305     391.287
  O       99.339     900.026     391.734
  C      100.700     901.950     392.293
  O      100.061     902.083     393.577
  C      101.966     901.145     392.568
  O      102.958     901.347     391.569
  C      102.411     901.743     393.891
  O      103.099     902.990     393.650
  C      101.064     901.990     394.605
  N      102.115     899.922     399.099
  C      102.535     901.121     398.571
  N      103.394     901.851     399.318
  N      102.139     901.572     397.405
  C      101.279     900.741     396.772
  C      100.791     899.522     397.203
  C      101.245     899.030     398.484
  O      100.956     897.951     399.000
  N       99.931     898.971     396.278
  C       99.905     899.852     395.300
  N      100.734     900.913     395.528
  O       98.275     897.752     391.579
  O       97.479     899.557     389.931
  H      102.555     903.481     392.998
  H       97.391     897.883     391.980
  H      102.451     899.617     400.017
  H       99.309     899.732     394.406
  H      101.079     902.929     395.154
  H      103.113     901.088     394.433
  H      103.786     901.523     400.190
  H      101.746     900.084     392.703
  H      103.765     902.708     398.912
  H      100.943     902.959     391.934
  H       98.870     901.945     391.135
  H      100.251     901.198     390.306
  P      103.710     900.031     391.027
  C      105.774     901.444     390.328
  O      104.752     900.562     389.923
  O      102.581     899.300     390.163
  O      104.263     899.146     392.099
  H      102.753     898.346     390.111
  H      106.531     901.502     389.516
  H      106.263     901.103     391.244
  H      105.371     902.457     390.489
  H      100.411     897.685     387.950
  H       99.089     898.826     387.896
  H       98.827     897.214     388.517

 3  4  5  6  7  8  9  10  11  12  23  26  30  31 0
 6-311+G(2d,p)
 ****
 33  35  36  37  38 0
 6-311+G(2d,p)
 ****
 1  2  13  14  15  16  17  18  19  20  21  22  24  25 0
 3-21G
 ****
 27  28  29  32  34  39  40  41  42  43  44  45  46  47  48  49 0
 3-21G
 ****


