%nproc=1
%NoSave
%Mem=1900MB
#P OB98/GEN NMR

erre ene a

0 1
  C     -323.595    -438.685     -16.366
  O     -323.308    -440.069     -16.411
  H     -324.640    -438.557     -16.066
  H     -323.462    -438.246     -17.357
  H     -322.955    -438.177     -15.640
  P     -321.802    -440.542     -16.691
  C     -321.552    -440.586     -19.262
  O     -321.332    -439.852     -18.065
  C     -320.362    -440.443     -20.217
  O     -320.187    -439.033     -20.526
  C     -319.044    -440.967     -19.638
  O     -318.291    -441.584     -20.683
  C     -318.338    -439.704     -19.170
  O     -316.919    -439.853     -19.146
  C     -318.828    -438.674     -20.186
  N     -315.744    -434.906     -18.810
  C     -315.462    -436.123     -19.411
  N     -314.155    -436.381     -19.667
  N     -316.372    -437.006     -19.727
  C     -317.635    -436.608     -19.435
  C     -318.047    -435.429     -18.847
  C     -317.019    -434.471     -18.478
  O     -317.214    -433.384     -17.932
  N     -319.411    -435.397     -18.696
  C     -319.823    -436.550     -19.195
  N     -318.782    -437.325     -19.647
  O     -321.581    -442.021     -16.633
  O     -320.936    -439.779     -15.585
  H     -316.536    -438.958     -19.058
  H     -320.655    -440.385     -14.878
  H     -315.003    -434.271     -18.582
  H     -320.853    -436.873     -19.252
  H     -318.227    -438.673     -21.103
  H     -318.673    -439.449     -18.159
  H     -313.408    -435.733     -19.470
  H     -319.200    -441.679     -18.830
  H     -313.929    -437.253     -20.133
  H     -320.612    -440.949     -21.158
  H     -322.463    -440.194     -19.741
  H     -321.714    -441.643     -19.013
  P     -318.609    -443.104     -21.082
  C     -316.791    -444.405     -19.810
  O     -318.172    -444.067     -19.871
  O     -318.133    -443.530     -22.428
  O     -320.215    -443.161     -21.007
  H     -320.550    -443.770     -21.695
  H     -316.617    -445.045     -18.970
  H     -316.210    -443.513     -19.705
  H     -316.508    -444.911     -20.709

 6  7  8  9  10  11  12  13  14  15  26  29  33  34 0
 6-311+G(2d,p)
 ****
 36  38  39  40  41 0
 6-311+G(2d,p)
 ****
 1  2  3  4  5  16  17  18  19  20  21  22  23  24  25 0
 3-21G
 ****
 27  28  30  31  32  35  37  42  43  44  45  46  47 0
 3-21G
 ****
 48  49 0
 3-21G
 ****


