%nproc=1
%NoSave
%Mem=1900MB
#P OB98/GEN NMR

erre ene a

0 1
  C      -13.232    -997.199     260.222
  O      -14.202    -996.546     261.015
  H      -12.268    -997.152     260.737
  H      -13.140    -996.694     259.261
  H      -13.500    -998.249     260.068
  P      -15.727    -996.676     260.545
  C      -15.900    -994.148     259.965
  O      -15.987    -995.485     259.496
  C      -16.004    -993.170     258.802
  O      -14.799    -993.224     257.998
  C      -17.163    -993.444     257.849
  O      -18.385    -992.905     258.333
  C      -16.685    -992.712     256.609
  O      -16.892    -991.297     256.772
  C      -15.183    -993.036     256.608
  N      -13.123    -994.785     252.321
  C      -13.325    -993.478     252.742
  N      -12.937    -992.501     251.895
  N      -13.869    -993.165     253.879
  C      -14.223    -994.239     254.620
  C      -14.072    -995.577     254.319
  C      -13.458    -995.919     253.054
  O      -13.235    -997.051     252.636
  N      -14.551    -996.378     255.319
  C      -14.997    -995.531     256.227
  N      -14.837    -994.223     255.847
  O      -16.560    -996.210     261.834
  O      -16.144    -998.037     260.094
  H      -16.491    -991.051     257.621
  H      -17.380    -996.743     261.891
  H      -12.712    -994.976     251.416
  H      -15.451    -995.820     257.169
  H      -14.579    -992.209     256.202
  H      -17.225    -993.009     255.699
  H      -12.558    -992.684     250.976
  H      -17.254    -994.515     257.623
  H      -13.048    -991.549     252.190
  H      -16.083    -992.160     259.214
  H      -14.944    -994.005     260.475
  H      -16.713    -993.977     260.680
  P      -19.743    -993.345     257.577
  C      -20.499    -990.914     257.055
  O      -20.053    -992.167     256.538
  O      -20.856    -993.137     258.708
  O      -19.737    -994.734     257.029
  H      -21.625    -993.697     258.517
  H      -20.663    -990.233     256.246
  H      -19.755    -990.514     257.712
  H      -21.413    -991.055     257.594

 6  7  8  9  10  11  12  13  14  15  26  29  33  34 0
 6-311+G(2d,p)
 ****
 36  38  39  40  41 0
 6-311+G(2d,p)
 ****
 1  2  3  4  5  16  17  18  19  20  21  22  23  24  25 0
 3-21G
 ****
 27  28  30  31  32  35  37  42  43  44  45  46  47 0
 3-21G
 ****
 48  49 0
 3-21G
 ****


