%nproc=1
%NoSave
%Mem=1900MB
#P OB98/GEN NMR

erre ene a

0 1
  C     -575.584    1056.440     612.818
  O     -576.798    1055.731     612.951
  P     -577.710    1055.413     611.666
  C     -576.217    1053.414     610.972
  O     -577.518    1053.851     611.384
  C     -576.106    1051.890     611.156
  O     -576.023    1051.569     612.560
  C     -577.302    1051.104     610.632
  O     -577.272    1051.006     609.216
  C     -577.137    1049.796     611.400
  O     -576.136    1048.964     610.748
  C     -576.612    1050.275     612.762
  N     -577.665    1050.310     613.779
  C     -577.874    1049.158     614.514
  O     -577.192    1048.144     614.323
  N     -578.831    1049.167     615.500
  C     -579.544    1050.228     615.716
  N     -580.438    1050.204     616.745
  C     -579.399    1051.458     614.917
  C     -578.444    1051.450     613.976
  O     -577.445    1056.298     610.472
  O     -579.215    1055.498     612.198
  H     -576.507    1048.663     609.907
  H     -579.603    1056.403     612.161
  H     -580.025    1052.318     615.109
  H     -578.274    1052.297     613.355
  H     -575.806    1049.617     613.102
  H     -578.061    1049.189     611.440
  H     -578.251    1051.593     610.935
  H     -575.185    1051.564     610.660
  H     -580.361    1049.409     617.374
  H     -575.464    1053.897     611.609
  H     -580.805    1051.052     617.132
  H     -576.048    1053.693     609.936
  P     -578.665    1051.185     608.422
  C     -578.358    1053.706     607.903
  O     -578.425    1052.384     607.380
  O     -579.636    1051.797     609.542
  O     -579.200    1049.918     607.829
  H     -580.219    1051.098     609.908
  H     -577.963    1054.367     607.115
  H     -577.661    1053.754     608.753
  H     -579.328    1054.057     608.204
  H     -575.128    1056.550     613.780
  H     -575.779    1057.407     612.404
  H     -574.925    1055.901     612.170

 3  4  5  6  7  8  9  10  11  12  13  23  27  28  29  30  32 0
 6-311+G(2d,p)
 ****
 34  35 0
 6-311+G(2d,p)
 ****
 1  2  14  15  16  17  18  19  20  21  22  24  25  26 0
 3-21G
 ****
 31  33  36  37  38  39  40  41  42  43  44  45  46 0
 3-21G
 ****


