%nproc=1
%NoSave
%Mem=1900MB
#P OB98/GEN NMR

erre ene a

0 1
  C       85.935     311.714      33.677
  O       84.506     311.718      33.679
  P       83.777     310.316      33.383
  C       82.619     310.996      31.165
  O       82.451     310.599      32.521
  C       81.877     312.305      30.860
  O       80.456     312.170      31.117
  C       82.378     313.496      31.684
  O       82.267     314.661      30.863
  C       81.357     313.586      32.807
  O       81.357     314.881      33.396
  C       80.074     313.199      32.049
  N       78.997     312.763      32.937
  C       78.326     313.750      33.658
  O       78.692     314.929      33.591
  N       77.283     313.387      34.474
  C       76.975     312.132      34.601
  N       75.933     311.828      35.421
  C       77.695     311.046      33.896
  C       78.675     311.432      33.089
  O       83.213     309.883      34.818
  O       84.692     309.277      32.822
  H       80.722     314.877      34.142
  H       83.463     308.961      35.013
  H       77.409     310.014      34.041
  H       79.262     310.714      32.534
  H       79.699     314.058      31.466
  H       81.580     312.845      33.583
  H       83.408     313.383      32.032
  H       82.002     312.522      29.791
  H       75.461     312.601      35.876
  H       82.244     310.211      30.507
  H       75.610     310.892      35.590
  H       83.686     311.088      30.951
  P       83.401     314.931      29.768
  C       84.007     316.876      31.340
  O       83.832     316.461      29.990
  O       82.524     315.055      28.425
  O       84.496     313.932      29.616
  H       83.115     315.147      27.657
  H       84.417     317.885      31.343
  H       84.701     316.205      31.856
  H       83.043     316.883      31.853
  H       86.295     312.700      33.885
  H       86.289     311.400      32.717
  H       86.291     311.039      34.427

 3  4  5  6  7  8  9  10  11  12  13  21  23  27  28  29  30  32 0
 6-311+G(2d,p)
 ****
 34  35 0
 6-311+G(2d,p)
 ****
 1  2  14  15  16  17  18  19  20  22  24  25  26 0
 3-21G
 ****
 31  33  36  37  38  39  40  41  42  43  44  45  46 0
 3-21G
 ****


