%nproc=1
%NoSave
%Mem=1900MB
#P OB98/GEN NMR

erre ene a

0 1
  C     -230.712     -34.919     260.691
  O     -229.917     -34.058     261.513
  P     -230.104     -32.480     261.263
  C     -228.139     -32.126     259.605
  O     -229.546     -32.146     259.787
  C     -227.756     -31.639     258.207
  O     -226.395     -31.113     258.184
  C     -227.838     -32.729     257.127
  O     -228.260     -32.091     255.912
  C     -226.383     -33.155     256.974
  O     -226.159     -33.842     255.747
  C     -225.696     -31.794     257.108
  N     -221.134     -32.440     255.047
  C     -222.388     -32.502     254.467
  N     -222.427     -32.716     253.130
  N     -223.497     -32.363     255.136
  C     -223.301     -32.112     256.462
  C     -222.111     -32.007     257.142
  C     -220.882     -32.199     256.391
  O     -219.743     -32.151     256.850
  N     -222.320     -31.712     258.476
  C     -223.636     -31.710     258.591
  N     -224.271     -31.885     257.397
  O     -229.018     -31.822     262.240
  O     -231.485     -31.984     261.550
  H     -225.230     -34.156     255.756
  H     -229.455     -31.494     263.053
  H     -220.303     -32.567     254.480
  H     -224.177     -31.549     259.513
  H     -225.788     -31.192     256.199
  H     -226.094     -33.820     257.798
  H     -221.606     -32.780     252.546
  H     -228.496     -33.571     257.372
  H     -223.330     -32.731     252.681
  H     -228.428     -30.808     257.936
  H     -227.727     -33.134     259.749
  H     -227.684     -31.500     260.386
  P     -229.726     -32.441     255.364
  C     -228.980     -33.472     253.096
  O     -229.576     -33.687     254.364
  O     -230.041     -31.213     254.370
  O     -230.778     -32.565     256.412
  H     -230.985     -30.960     254.459
  H     -228.528     -34.404     252.749
  H     -228.201     -32.695     253.141
  H     -229.752     -33.156     252.380
  H     -230.508     -35.939     260.941
  H     -230.473     -34.750     259.662
  H     -231.749     -34.712     260.856

 3  4  5  6  7  8  9  10  11  12  23  26  30  31 0
 6-311+G(2d,p)
 ****
 33  35  36  37  38 0
 6-311+G(2d,p)
 ****
 1  2  13  14  15  16  17  18  19  20  21  22  24  25 0
 3-21G
 ****
 27  28  29  32  34  39  40  41  42  43  44  45  46  47  48  49 0
 3-21G
 ****


