%nproc=1
%NoSave
%Mem=1900MB
#P OB98/GEN NMR

erre ene a

0 1
  C      419.694    -515.820     865.195
  O      418.328    -515.631     864.813
  P      418.040    -515.434     863.242
  C      417.436    -517.912     862.736
  O      418.336    -516.832     862.517
  C      417.369    -518.814     861.510
  O      418.650    -519.416     861.238
  C      416.404    -519.983     861.640
  O      415.064    -519.583     861.412
  C      416.889    -520.898     860.524
  O      416.333    -520.478     859.265
  C      418.406    -520.669     860.545
  N      419.782    -525.548     860.439
  C      419.015    -524.825     859.546
  N      418.578    -525.486     858.451
  N      418.717    -523.562     859.702
  C      419.241    -523.022     860.827
  C      420.008    -523.642     861.787
  C      420.316    -525.043     861.611
  O      420.963    -525.746     862.393
  N      420.370    -522.760     862.776
  C      419.849    -521.611     862.401
  N      419.139    -521.724     861.233
  O      419.264    -514.510     862.767
  O      416.721    -514.810     862.939
  H      416.605    -519.550     859.126
  H      419.003    -513.984     861.987
  H      419.984    -526.519     860.265
  H      419.953    -520.678     862.936
  H      418.822    -520.563     859.543
  H      416.584    -521.945     860.671
  H      418.836    -526.434     858.218
  H      416.514    -520.480     862.612
  H      418.052    -524.959     857.759
  H      417.094    -518.192     860.646
  H      416.440    -517.522     862.952
  H      417.759    -518.471     863.621
  P      414.086    -519.507     862.682
  C      414.292    -516.981     863.260
  O      414.646    -518.312     863.589
  O      414.464    -520.822     863.508
  O      412.631    -519.446     862.343
  H      413.689    -521.135     864.018
  H      413.232    -516.916     862.995
  H      414.898    -516.640     862.402
  H      414.489    -516.337     864.111
  H      419.754    -515.939     866.257
  H      420.269    -514.968     864.898
  H      420.081    -516.695     864.716

 3  4  5  6  7  8  9  10  11  12  23  26  30  31  33  0
 6-311+G(2d,p)
 ****
 35  36  37  38 0
 6-311+G(2d,p)
 ****
 1  2  13  14  15  16  17  18  19  20  21  22  24  25  27  28  29 0
 3-21G
 ****
 32  34  39  40  41  42  43  44  45  46  47  48  49 0
 3-21G
 ****


