%nproc=1
%NoSave
%Mem=1900MB
#P OB98/GEN NMR

erre ene a

0 1
  C     -303.842    -262.155     903.444
  O     -304.386    -263.192     904.227
  H     -303.321    -262.603     902.595
  H     -303.124    -261.581     904.033
  H     -304.625    -261.495     903.068
  P     -305.445    -262.820     905.380
  C     -307.034    -264.738     904.674
  O     -306.238    -264.176     905.720
  C     -306.933    -266.267     904.676
  O     -305.576    -266.653     904.302
  C     -307.232    -266.900     906.044
  O     -307.814    -268.197     905.790
  C     -305.835    -267.060     906.627
  O     -305.825    -267.983     907.686
  C     -305.052    -267.459     905.368
  N     -303.606    -267.278     905.534
  C     -302.836    -268.441     905.548
  O     -303.321    -269.581     905.478
  N     -301.489    -268.260     905.716
  C     -300.863    -267.068     905.914
  O     -299.656    -266.963     906.091
  C     -301.729    -265.883     905.929
  C     -303.037    -266.036     905.747
  O     -306.315    -261.641     905.101
  O     -304.554    -262.606     906.693
  H     -304.896    -268.205     907.935
  H     -304.971    -261.952     907.281
  H     -300.910    -269.093     905.724
  H     -301.271    -264.918     906.097
  H     -303.708    -265.177     905.753
  H     -305.227    -268.513     905.117
  H     -305.468    -266.097     907.018
  H     -307.897    -266.303     906.670
  H     -307.609    -266.655     903.892
  H     -306.655    -264.341     903.724
  H     -308.075    -264.425     904.799
  P     -309.403    -268.405     905.683
  C     -309.853    -270.390     904.087
  O     -309.695    -269.977     905.441
  O     -310.078    -267.496     904.705
  O     -309.952    -268.157     907.163
  H     -310.873    -267.826     907.116
  H     -310.040    -271.443     904.055
  H     -308.960    -270.170     903.540
  H     -310.677    -269.867     903.649

 6  7  8  9  10  11  12  13  14  15  16  26  31  32  33  34  35 0
 6-311+G(2d,p)
 ****
 36  37 0
 6-311+G(2d,p)
 ****
 1  2  3  4  5  17  18  19  20  21  22  23  24  25 0
 3-21G
 ****
 27  28  29  30  38  39  40  41  42  43  44  45 0
 3-21G
 ****


