%nproc=1
%NoSave
%Mem=1900MB
#P OB98/GEN NMR

erre ene a

0 1
  C     -331.928     784.283     160.084
  O     -333.269     784.039     160.500
  P     -334.206     785.239     161.027
  C     -333.431     785.022     163.482
  O     -334.499     784.886     162.564
  C     -333.930     784.736     164.897
  O     -334.768     785.800     165.360
  C     -334.768     783.453     165.024
  O     -333.945     782.297     164.986
  C     -335.482     783.714     166.340
  O     -334.619     783.423     167.450
  C     -335.752     785.233     166.269
  N     -337.105     785.565     165.850
  C     -338.130     785.075     166.669
  O     -337.899     784.422     167.676
  N     -339.436     785.376     166.320
  C     -339.678     786.073     165.256
  N     -340.981     786.405     165.004
  C     -338.624     786.565     164.347
  C     -337.366     786.272     164.700
  O     -335.407     785.505     160.198
  O     -333.209     786.492     161.144
  H     -335.018     783.841     168.238
  H     -333.134     787.015     160.310
  H     -338.880     787.130     163.464
  H     -336.544     786.609     164.107
  H     -335.547     785.703     167.242
  H     -336.407     783.138     166.461
  H     -335.496     783.409     164.212
  H     -333.039     784.673     165.562
  H     -341.644     786.200     165.743
  H     -333.063     786.056     163.450
  H     -341.221     787.174     164.390
  H     -332.614     784.346     163.201
  P     -334.530     780.990     164.266
  C     -335.631     779.954     166.390
  O     -334.611     779.860     165.422
  O     -333.336     780.519     163.326
  O     -335.798     781.217     163.523
  H     -333.511     780.784     162.396
  H     -335.686     779.008     166.933
  H     -336.601     780.133     165.911
  H     -335.399     780.758     167.092
  H     -331.478     783.364     159.772
  H     -331.371     784.694     160.900
  H     -331.928     784.975     159.268

 3  4  5  6  7  8  9  10  11  12  13  23  27  28  29  30  32 0
 6-311+G(2d,p)
 ****
 34  35 0
 6-311+G(2d,p)
 ****
 1  2  14  15  16  17  18  19  20  21  22  24  25  26 0
 3-21G
 ****
 31  33  36  37  38  39  40  41  42  43  44  45  46 0
 3-21G
 ****


