%nproc=1
%NoSave
%Mem=1900MB
#P OB98/GEN NMR

erre ene a

0 1
  C      -76.626    -181.464       8.300
  O      -76.946    -182.424       7.285
  P      -78.454    -182.840       6.928
  C      -78.736    -182.337       4.411
  O      -78.996    -181.906       5.745
  C      -79.921    -183.113       3.828
  O      -81.131    -182.337       3.915
  C      -79.781    -183.477       2.354
  O      -78.892    -184.563       2.178
  C      -81.232    -183.777       1.987
  O      -81.597    -185.113       2.366
  C      -81.995    -182.737       2.835
  N      -82.436    -181.590       2.050
  C      -83.798    -181.266       2.128
  O      -84.569    -181.968       2.780
  N      -84.250    -180.167       1.436
  C      -83.435    -179.501       0.676
  N      -83.939    -178.418       0.021
  C      -82.017    -179.860       0.498
  C      -81.591    -180.905       1.208
  O      -79.363    -182.912       8.111
  O      -78.331    -184.282       6.233
  H      -80.904    -185.703       2.015
  H      -79.137    -184.800       6.425
  H      -81.377    -179.298      -0.165
  H      -80.559    -181.234       1.146
  H      -82.874    -183.198       3.306
  H      -81.422    -183.682       0.912
  H      -79.436    -182.603       1.785
  H      -80.061    -184.019       4.433
  H      -84.915    -178.192       0.171
  H      -77.852    -182.986       4.428
  H      -83.388    -177.831      -0.590
  H      -78.514    -181.459       3.794
  P      -78.260    -184.849       0.732
  C      -76.347    -183.156       0.985
  O      -77.508    -183.514       0.258
  O      -79.193    -185.442      -0.274
  O      -77.043    -185.844       1.039
  H      -76.924    -186.441       0.276
  H      -75.725    -182.513       0.357
  H      -75.769    -184.042       1.268
  H      -76.636    -182.603       1.881
  H      -75.564    -181.349       8.360
  H      -77.002    -181.803       9.243
  H      -77.074    -180.523       8.055

 3  4  5  6  7  8  9  10  11  12  13  23  27  28  29  30  32 0
 6-311+G(2d,p)
 ****
 34  35 0
 6-311+G(2d,p)
 ****
 1  2  14  15  16  17  18  19  20  21  22  24  25  26 0
 3-21G
 ****
 31  33  36  37  38  39  40  41  42  43  44  45  46 0
 3-21G
 ****


