%nproc=1
%NoSave
%Mem=1900MB
#P OB98/GEN NMR

erre ene a

0 1
  C      301.054    -230.303      63.763
  O      302.373    -230.760      63.571
  P      302.654    -232.266      63.100
  C      301.832    -231.464      60.798
  O      301.773    -232.493      61.777
  C      302.614    -231.945      59.577
  O      304.029    -232.062      59.877
  C      302.218    -233.332      59.094
  O      300.921    -233.492      58.567
  C      303.383    -233.672      58.182
  O      303.232    -233.072      56.896
  C      304.572    -233.029      58.944
  N      305.395    -234.031      59.617
  C      306.659    -234.241      59.080
  O      307.092    -233.639      58.100
  N      307.416    -235.203      59.694
  C      307.022    -235.988      60.739
  O      307.736    -236.865      61.210
  C      305.669    -235.731      61.252
  C      304.924    -234.780      60.678
  O      302.471    -233.308      64.154
  O      304.140    -232.193      62.508
  H      303.970    -233.384      56.338
  H      304.252    -231.579      61.761
  H      308.331    -235.381      59.313
  H      305.329    -236.329      62.089
  H      303.924    -234.573      61.039
  H      305.214    -232.470      58.248
  H      303.475    -234.752      58.024
  H      302.273    -234.019      59.949
  H      302.515    -231.196      58.786
  H      302.343    -230.594      61.226
  H      300.819    -231.158      60.525
  P      300.053    -234.826      58.738
  C      299.865    -234.604      61.314
  O      300.285    -235.391      60.222
  O      300.105    -235.810      57.614
  O      298.565    -234.233      58.841
  H      297.939    -234.878      58.466
  H      300.139    -235.118      62.240
  H      298.776    -234.478      61.296
  H      300.355    -233.630      61.298
  H      301.073    -229.280      64.075
  H      300.577    -230.896      64.515
  H      300.511    -230.386      62.845

 3  4  5  6  7  8  9  10  11  12  13  23  28  29  30  31  32 0
 6-311+G(2d,p)
 ****
 33  34 0
 6-311+G(2d,p)
 ****
 1  2  14  15  16  17  18  19  20  21  22  24  25  26  27 0
 3-21G
 ****
 35  36  37  38  39  40  41  42  43  44  45 0
 3-21G
 ****


