%nproc=1
%NoSave
%Mem=1900MB
#P OB98/GEN NMR

erre ene a

0 1
  C     -275.484     868.460     380.275
  O     -276.815     868.984     380.203
  P     -277.762     868.920     381.483
  C     -278.545     866.453     381.603
  O     -278.881     867.792     381.263
  C     -279.788     865.573     381.570
  O     -280.782     866.013     382.527
  C     -280.510     865.603     380.225
  O     -279.845     864.997     379.131
  C     -281.886     865.087     380.577
  O     -281.924     863.670     380.615
  C     -282.088     865.677     381.997
  N     -282.988     866.837     382.011
  C     -284.339     866.549     382.037
  O     -284.799     865.407     382.007
  N     -285.175     867.648     382.061
  C     -284.790     868.950     382.032
  O     -285.569     869.888     382.029
  C     -283.336     869.184     381.982
  C     -282.512     868.135     381.971
  O     -278.268     870.236     381.990
  O     -276.809     868.243     382.594
  H     -281.838     863.351     379.699
  H     -276.967     868.702     383.438
  H     -286.161     867.457     382.091
  H     -282.995     870.210     381.946
  H     -281.439     868.280     381.930
  H     -282.507     864.914     382.669
  H     -282.632     865.412     379.842
  H     -280.621     866.665     379.943
  H     -279.507     864.545     381.842
  H     -278.091     866.429     382.607
  H     -277.769     866.089     380.913
  P     -278.670     865.709     378.301
  C     -280.230     866.809     376.543
  O     -279.171     865.905     376.798
  O     -277.282     865.194     378.501
  O     -278.747     867.215     378.874
  H     -277.844     867.586     378.883
  H     -280.445     866.811     375.484
  H     -279.939     867.831     376.845
  H     -281.129     866.500     377.087
  H     -274.999     868.588     379.330
  H     -275.523     867.419     380.518
  H     -274.936     868.982     381.031

 3  4  5  6  7  8  9  10  11  12  13  23  28  29  30  31  32 0
 6-311+G(2d,p)
 ****
 33  34 0
 6-311+G(2d,p)
 ****
 1  2  14  15  16  17  18  19  20  21  22  24  25  26  27 0
 3-21G
 ****
 35  36  37  38  39  40  41  42  43  44  45 0
 3-21G
 ****


