%nproc=1
%NoSave
%Mem=1900MB
#P OB98/GEN NMR

erre ene a

0 1
  C     -497.668    -723.007    -108.884
  O     -498.491    -723.848    -108.073
  P     -499.560    -723.258    -107.038
  C     -497.605    -722.388    -105.601
  O     -498.866    -722.081    -106.190
  C     -497.180    -721.317    -104.591
  O     -498.286    -720.928    -103.755
  C     -496.053    -721.747    -103.650
  O     -494.795    -721.684    -104.304
  C     -496.246    -720.761    -102.507
  O     -495.631    -719.497    -102.824
  C     -497.770    -720.616    -102.451
  N     -498.456    -721.325     -97.426
  C     -497.823    -720.367     -98.119
  N     -497.674    -720.242     -99.467
  C     -498.298    -721.250    -100.096
  C     -498.994    -722.314     -99.521
  C     -499.053    -722.326     -98.109
  N     -499.683    -723.325     -97.403
  N     -499.477    -723.162    -100.489
  C     -499.108    -722.624    -101.630
  N     -498.386    -721.469    -101.440
  O     -500.252    -724.294    -106.206
  O     -500.622    -722.477    -107.960
  H     -495.745    -718.910    -102.058
  H     -501.499    -722.466    -107.520
  H     -497.361    -719.572     -97.532
  H     -499.326    -723.029    -102.608
  H     -498.070    -719.586    -102.229
  H     -495.794    -721.115    -101.572
  H     -496.248    -722.762    -103.288
  H     -496.878    -720.431    -105.162
  H     -496.862    -722.462    -106.409
  H     -499.668    -723.276     -96.400
  H     -500.099    -724.103     -97.904
  H     -497.678    -723.360    -105.104
  P     -494.183    -722.989    -104.991
  C     -492.636    -723.415    -102.995
  O     -493.655    -723.944    -103.823
  O     -493.211    -722.739    -106.099
  O     -495.473    -723.768    -105.530
  H     -495.242    -724.295    -106.320
  H     -491.675    -723.494    -103.503
  H     -492.608    -723.981    -102.056
  H     -492.841    -722.355    -102.747
  H     -497.033    -723.613    -109.496
  H     -497.068    -722.382    -108.256
  H     -498.287    -722.396    -109.507

 3  4  5  6  7  8  9  10  11  12  22  25  29  30  31  32 0
 6-311+G(2d,p)
 ****
 33  36  37 0
 6-311+G(2d,p)
 ****
 1  2  13  14  15  16  17  18  19  20  21  23  24  26 0
 3-21G
 ****
 27  28  34  35  38  39  40  41  42  43  44  45  46  47  48 0
 3-21G
 ****


