%nproc=1
%NoSave
%Mem=1900MB
#P OB98/GEN NMR

erre ene a

0 1
  C       90.093     -56.233    -229.268
  O       89.827     -56.536    -230.625
  H       89.840     -55.187    -229.072
  H       89.466     -56.869    -228.637
  H       91.143     -56.418    -229.026
  P       90.838     -55.943    -231.722
  C       89.119     -55.304    -233.560
  O       90.149     -56.192    -233.153
  C       88.347     -55.889    -234.744
  O       87.523     -56.993    -234.263
  C       87.420     -54.884    -235.453
  O       87.472     -55.138    -236.862
  C       86.040     -55.260    -234.936
  O       84.998     -54.888    -235.829
  C       86.189     -56.769    -234.755
  N       83.180     -60.748    -233.761
  C       84.247     -60.606    -234.577
  N       85.031     -59.521    -234.744
  C       84.660     -58.532    -233.905
  C       83.595     -58.533    -233.016
  C       82.824     -59.705    -232.973
  N       81.692     -59.837    -232.196
  N       83.503     -57.309    -232.378
  C       84.471     -56.577    -232.893
  N       85.197     -57.272    -233.821
  O       92.039     -57.004    -231.690
  O       91.314     -54.551    -231.471
  H       85.135     -55.340    -236.683
  H       92.684     -56.747    -231.005
  H       84.502     -61.471    -235.181
  H       84.671     -55.545    -232.654
  H       86.071     -57.318    -235.696
  H       85.866     -54.761    -233.973
  H       87.672     -53.837    -235.256
  H       89.070     -56.317    -235.452
  H       89.564     -54.351    -233.863
  H       81.140     -60.677    -232.312
  H       81.350     -59.034    -231.687
  H       88.443     -55.124    -232.716
  P       88.070     -53.979    -237.799
  C       86.356     -53.904    -239.763
  O       87.657     -54.287    -239.314
  O       89.645     -54.266    -237.777
  O       87.754     -52.595    -237.322
  H       90.140     -53.429    -237.845
  H       86.238     -54.178    -240.791
  H       86.241     -52.845    -239.661
  H       85.614     -54.402    -239.174

 6  7  8  9  10  11  12  13  14  15  25  28  32  33  34  35 0
 6-311+G(2d,p)
 ****
 36  39  40 0
 6-311+G(2d,p)
 ****
 1  2  3  4  5  16  17  18  19  20  21  22  23  24 0
 3-21G
 ****
 26  27  29  30  31  37  38  41  42  43  44  45  46  47 0
 3-21G
 ****
 48 0
 3-21G
 ****


