%nproc=1
%NoSave
%Mem=1900MB
#P OB98/GEN NMR

erre ene a

0 1
  C      -96.894     228.472     162.673
  O      -95.770     229.103     163.253
  P      -95.979     230.261     164.339
  C      -95.371     231.811     162.380
  O      -96.168     231.644     163.552
  C      -96.119     232.658     161.353
  O      -97.421     232.093     161.082
  C      -96.374     234.091     161.796
  O      -95.198     234.873     161.695
  C      -97.497     234.497     160.848
  O      -96.965     234.890     159.571
  C      -98.290     233.190     160.719
  N     -103.390     233.304     160.655
  C     -102.472     233.498     159.681
  N     -101.129     233.487     159.784
  C     -100.753     233.272     161.060
  C     -101.577     233.097     162.162
  C     -102.961     233.092     161.922
  N     -103.903     232.834     162.891
  N     -100.818     232.934     163.310
  C      -99.566     233.027     162.901
  N      -99.482     233.164     161.542
  O      -94.970     230.291     165.437
  O      -97.443     229.978     164.923
  H      -96.416     235.684     159.717
  H      -97.381     229.803     165.881
  H     -102.873     233.674     158.686
  H      -98.696     232.980     163.545
  H      -98.608     233.009     159.682
  H      -98.086     235.337     161.226
  H      -96.756     234.100     162.828
  H      -95.541     232.641     160.413
  H      -95.160     230.820     161.963
  H     -104.857     232.713     162.581
  H     -103.602     232.380     163.750
  H      -94.423     232.289     162.648
  P      -94.531     235.483     163.017
  C      -95.114     237.875     162.302
  O      -95.253     236.882     163.298
  O      -93.038     235.520     163.028
  O      -95.098     234.545     164.191
  H      -94.429     234.474     164.897
  H      -94.124     238.336     162.378
  H      -95.875     238.643     162.457
  H      -95.241     237.449     161.303
  H      -96.566     227.730     161.975
  H      -97.490     229.201     162.165
  H      -97.477     228.007     163.440

 3  4  5  6  7  8  9  10  11  12  22  25  29  30  31  32 0
 6-311+G(2d,p)
 ****
 33  36  37 0
 6-311+G(2d,p)
 ****
 1  2  13  14  15  16  17  18  19  20  21  23  24  26 0
 3-21G
 ****
 27  28  34  35  38  39  40  41  42  43  44  45  46  47  48 0
 3-21G
 ****


