%nproc=1
%NoSave
%Mem=1900MB
#P OB98/GEN NMR

erre ene a

0 1
  C     -118.699     -21.268     -64.628
  O     -118.370     -20.971     -65.988
  P     -116.945     -20.316     -66.319
  C     -115.437     -22.344     -65.811
  O     -115.947     -21.476     -66.814
  C     -114.808     -23.595     -66.443
  O     -115.763     -24.259     -67.323
  C     -113.569     -23.268     -67.288
  O     -112.617     -24.344     -67.223
  C     -114.124     -23.229     -68.699
  O     -113.098     -23.413     -69.675
  C     -115.157     -24.350     -68.629
  N     -116.396     -25.638     -73.433
  C     -115.336     -25.964     -72.658
  N     -115.085     -25.603     -71.381
  C     -116.078     -24.834     -70.901
  C     -117.225     -24.425     -71.569
  C     -117.366     -24.856     -72.898
  N     -118.431     -24.499     -73.694
  N     -118.012     -23.638     -70.754
  C     -117.328     -23.531     -69.631
  N     -116.171     -24.262     -69.661
  O     -116.388     -19.410     -65.271
  O     -117.231     -19.510     -67.678
  H     -112.522     -22.628     -69.647
  H     -116.783     -18.644     -67.635
  H     -114.587     -26.595     -73.131
  H     -117.617     -22.930     -68.779
  H     -114.690     -25.339     -68.709
  H     -114.603     -22.258     -68.884
  H     -113.065     -22.336     -67.016
  H     -114.558     -24.308     -65.647
  H     -116.240     -22.635     -65.130
  H     -118.391     -24.757     -74.671
  H     -119.080     -23.801     -73.359
  H     -114.708     -21.798     -65.199
  P     -111.579     -24.293     -65.990
  C     -112.784     -25.375     -63.938
  O     -111.946     -25.543     -65.057
  O     -111.519     -22.960     -65.317
  O     -110.206     -24.715     -66.699
  H     -110.257     -25.523     -67.236
  H     -113.013     -26.358     -63.517
  H     -113.724     -24.892     -64.219
  H     -112.276     -24.775     -63.174
  H     -119.678     -21.697     -64.583
  H     -118.678     -20.367     -64.051
  H     -117.987     -21.962     -64.232

 3  4  5  6  7  8  9  10  11  12  22  25  29  30  31  32 0
 6-311+G(2d,p)
 ****
 33  36  37 0
 6-311+G(2d,p)
 ****
 1  2  13  14  15  16  17  18  19  20  21  23  24  26 0
 3-21G
 ****
 27  28  34  35  38  39  40  41  42  43  44  45  46  47  48 0
 3-21G
 ****


