%nproc=1
%NoSave
%Mem=1900MB
#P OB98/GEN NMR

erre ene a

0 1
  C     -349.031     173.492      48.920
  O     -348.574     173.467      50.270
  P     -347.335     172.512      50.617
  C     -348.850     170.370      50.630
  O     -347.703     171.029      50.125
  C     -348.604     168.851      50.751
  O     -348.405     168.314      49.418
  C     -347.366     168.451      51.544
  O     -347.492     167.082      51.932
  C     -346.277     168.581      50.502
  O     -345.098     167.877      50.879
  C     -346.982     168.078      49.220
  N     -346.523     168.753      47.987
  C     -345.529     168.144      47.226
  O     -345.003     167.069      47.521
  N     -345.111     168.826      46.118
  C     -345.611     170.015      45.675
  O     -345.139     170.628      44.724
  C     -346.749     170.547      46.431
  C     -347.139     169.911      47.541
  O     -347.368     172.418      52.214
  O     -346.023     173.019      50.111
  H     -344.361     168.278      50.365
  H     -346.653     172.961      52.598
  H     -344.348     168.426      45.594
  H     -347.215     171.459      46.073
  H     -347.969     170.303      48.125
  H     -346.824     167.001      49.084
  H     -346.000     169.637      50.386
  H     -347.168     169.070      52.423
  H     -349.503     168.376      51.166
  H     -349.709     170.564      49.984
  H     -349.104     170.775      51.618
  P     -347.921     166.766      53.447
  C     -345.518     166.051      54.024
  O     -346.594     166.918      54.334
  O     -348.700     165.509      53.660
  O     -348.767     168.063      53.855
  H     -349.327     167.862      54.631
  H     -344.578     166.549      54.279
  H     -345.508     165.790      52.961
  H     -345.612     165.137      54.621
  H     -349.856     174.168      48.835
  H     -349.343     172.510      48.631
  H     -348.237     173.817      48.281

 3  4  5  6  7  8  9  10  11  12  13  23  28  29  30  31  32 0
 6-311+G(2d,p)
 ****
 33  34 0
 6-311+G(2d,p)
 ****
 1  2  14  15  16  17  18  19  20  21  22  24  25  26  27 0
 3-21G
 ****
 35  36  37  38  39  40  41  42  43  44  45 0
 3-21G
 ****


