%nproc=1
%NoSave
%Mem=1900MB
#P OB98/GEN NMR

erre ene a

0 1
  C      -10.158     675.781    -358.859
  O      -11.070     674.851    -359.390
  P      -11.653     675.064    -360.870
  C      -10.515     673.031    -361.959
  O      -11.753     673.624    -361.570
  C      -10.554     671.524    -361.735
  O      -10.484     671.219    -360.326
  C      -11.829     670.852    -362.228
  O      -11.809     670.706    -363.636
  C      -11.791     669.538    -361.457
  O      -10.933     668.592    -362.108
  C      -11.190     669.976    -360.115
  N      -13.609     667.671    -356.257
  C      -12.777     667.203    -357.208
  N      -12.200     667.871    -358.230
  C      -12.587     669.159    -358.220
  C      -13.460     669.781    -357.335
  C      -13.968     668.982    -356.292
  N      -14.771     669.469    -355.286
  N      -13.629     671.105    -357.676
  C      -12.886     671.283    -358.749
  N      -12.192     670.151    -359.074
  O      -10.974     676.114    -361.681
  O      -13.186     675.443    -360.621
  H      -10.964     667.763    -361.599
  H      -13.369     676.332    -360.982
  H      -12.534     666.149    -357.133
  H      -12.806     672.208    -359.315
  H      -10.459     669.253    -359.740
  H      -12.782     669.071    -361.367
  H      -12.703     671.430    -361.908
  H       -9.674     671.079    -362.215
  H       -9.713     673.476    -361.363
  H      -14.958     668.848    -354.511
  H      -14.793     670.475    -355.126
  H      -10.328     673.246    -363.020
  P      -13.138     670.232    -364.405
  C      -14.299     672.517    -364.376
  O      -13.709     671.516    -365.177
  O      -14.131     669.489    -363.576
  O      -12.572     669.327    -365.600
  H      -13.217     668.624    -365.801
  H      -15.308     672.214    -364.079
  H      -14.368     673.444    -364.956
  H      -13.695     672.709    -363.480
  H       -9.878     675.482    -357.871
  H      -10.615     676.748    -358.823
  H       -9.287     675.821    -359.479

 3  4  5  6  7  8  9  10  11  12  22  25  29  30  31  32 0
 6-311+G(2d,p)
 ****
 33  36  37 0
 6-311+G(2d,p)
 ****
 1  2  13  14  15  16  17  18  19  20  21  23  24  26 0
 3-21G
 ****
 27  28  34  35  38  39  40  41  42  43  44  45  46  47  48 0
 3-21G
 ****


