%nproc=1
%NoSave
%Mem=1900MB
#P OB98/GEN NMR

erre ene a

0 1
  C     -566.289     164.281     294.530
  O     -567.116     163.226     294.984
  P     -567.574     162.112     293.924
  C     -569.628     161.952     292.343
  O     -568.642     162.788     292.929
  C     -570.837     162.778     291.887
  O     -571.615     163.171     293.044
  C     -570.460     164.052     291.133
  O     -571.453     164.327     290.131
  C     -570.576     165.135     292.187
  O     -570.783     166.419     291.605
  C     -571.749     164.612     293.010
  N     -574.324     167.586     296.187
  C     -574.729     167.026     294.993
  N     -575.952     167.384     294.536
  N     -573.995     166.190     294.295
  C     -572.792     165.931     294.866
  C     -572.292     166.412     296.056
  C     -573.107     167.343     296.804
  O     -572.796     167.894     297.859
  N     -571.053     165.893     296.323
  C     -570.775     165.137     295.271
  N     -571.789     165.157     294.351
  O     -568.467     161.122     294.811
  O     -566.457     161.380     293.265
  H     -570.906     167.051     292.339
  H     -567.970     160.299     294.988
  H     -574.923     168.233     296.674
  H     -569.860     164.578     295.129
  H     -572.709     164.840     292.524
  H     -569.655     165.181     292.783
  H     -576.531     168.071     294.987
  H     -569.470     164.029     290.663
  H     -576.251     167.022     293.641
  H     -571.484     162.139     291.270
  H     -569.956     161.218     293.079
  H     -569.197     161.416     291.489
  P     -570.978     165.251     288.908
  C     -571.181     167.824     288.518
  O     -571.050     166.760     289.440
  O     -572.199     165.150     287.878
  O     -569.679     164.843     288.293
  H     -571.890     165.320     286.965
  H     -572.138     168.326     288.691
  H     -571.147     167.473     287.479
  H     -570.370     168.531     288.676
  H     -566.070     164.938     295.345
  H     -566.795     164.824     293.760
  H     -565.377     163.878     294.142

 3  4  5  6  7  8  9  10  11  12  23  26  30  31 0
 6-311+G(2d,p)
 ****
 33  35  36  37  38 0
 6-311+G(2d,p)
 ****
 1  2  13  14  15  16  17  18  19  20  21  22  24  25 0
 3-21G
 ****
 27  28  29  32  34  39  40  41  42  43  44  45  46  47  48  49 0
 3-21G
 ****


