%nproc=1
%NoSave
%Mem=1900MB
#P OB98/GEN NMR

erre ene a

0 1
  C       34.242    -670.124    -243.924
  O       35.009    -670.867    -242.967
  P       35.753    -672.198    -243.461
  C       38.026    -673.367    -242.961
  O       37.049    -672.416    -242.541
  C       39.386    -673.038    -242.337
  O       39.992    -671.867    -242.948
  C       39.309    -672.726    -240.836
  O       39.300    -673.922    -240.060
  C       40.621    -671.985    -240.612
  O       41.706    -672.926    -240.523
  C       40.745    -671.162    -241.915
  N       41.837    -666.463    -240.383
  C       42.615    -667.606    -240.392
  N       43.881    -667.474    -239.916
  N       42.202    -668.766    -240.802
  C       40.920    -668.753    -241.265
  C       40.048    -667.688    -241.307
  C       40.512    -666.406    -240.823
  O       39.866    -665.373    -240.781
  N       38.836    -668.061    -241.825
  C       38.985    -669.334    -242.114
  N       40.224    -669.814    -241.782
  O       36.378    -671.759    -244.870
  O       34.852    -673.385    -243.599
  H       41.715    -673.422    -241.368
  H       36.470    -672.540    -245.455
  H       42.203    -665.597    -240.038
  H       38.216    -669.968    -242.565
  H       41.773    -671.088    -242.270
  H       40.616    -671.402    -239.698
  H       44.285    -666.591    -239.628
  H       38.462    -672.079    -240.604
  H       44.476    -668.288    -239.951
  H       40.057    -673.893    -242.482
  H       38.113    -673.362    -244.050
  H       37.691    -674.372    -242.688
  P       37.877    -674.590    -239.724
  C       37.263    -677.074    -239.303
  O       38.191    -676.027    -239.097
  O       37.288    -674.914    -241.184
  O       36.950    -673.718    -238.944
  H       36.318    -674.847    -241.184
  H       37.720    -678.016    -238.953
  H       37.027    -677.187    -240.363
  H       36.353    -676.895    -238.726
  H       33.809    -669.269    -243.448
  H       33.464    -670.745    -244.317
  H       34.880    -669.804    -244.721

 3  4  5  6  7  8  9  10  11  12  23  26  30  31 0
 6-311+G(2d,p)
 ****
 33  35  36  37  38 0
 6-311+G(2d,p)
 ****
 1  2  13  14  15  16  17  18  19  20  21  22  24  25 0
 3-21G
 ****
 27  28  29  32  34  39  40  41  42  43  44  45  46  47  48  49 0
 3-21G
 ****


