%nproc=1
%NoSave
%Mem=1900MB
#P OB98/GEN NMR

erre ene a

0 1
  C     -114.587     483.484    -140.449
  O     -114.596     482.132    -140.009
  P     -115.832     481.639    -139.110
  C     -114.151     481.188    -137.185
  O     -115.386     481.787    -137.575
  C     -114.167     480.824    -135.702
  O     -113.007     479.989    -135.407
  C     -114.114     482.017    -134.748
  O     -114.868     481.667    -133.576
  C     -112.643     482.101    -134.375
  O     -112.432     482.818    -133.163
  C     -112.291     480.616    -134.320
  N     -108.573     477.107    -134.175
  C     -109.908     477.007    -134.005
  N     -110.835     477.988    -134.064
  C     -110.253     479.175    -134.315
  C     -108.904     479.437    -134.476
  C     -108.033     478.333    -134.401
  N     -106.675     478.430    -134.577
  N     -108.691     480.781    -134.695
  C     -109.893     481.326    -134.668
  N     -110.868     480.391    -134.466
  O     -115.829     480.057    -139.349
  O     -117.151     482.239    -139.454
  H     -112.886     482.344    -132.444
  H     -116.622     479.796    -139.864
  H     -110.289     476.007    -133.809
  H     -110.100     482.382    -134.791
  H     -112.618     480.146    -133.390
  H     -112.093     482.613    -135.178
  H     -114.496     482.946    -135.173
  H     -115.055     480.213    -135.505
  H     -113.343     481.913    -137.359
  H     -106.139     477.571    -134.644
  H     -106.288     479.295    -134.937
  H     -113.965     480.297    -137.799
  P     -115.397     482.868    -132.659
  C     -113.525     482.842    -130.871
  O     -114.113     483.520    -131.964
  O     -116.146     482.120    -131.458
  O     -116.314     483.818    -133.367
  H     -116.850     482.689    -131.100
  H     -112.446     483.016    -130.884
  H     -113.712     481.764    -130.906
  H     -113.935     483.241    -129.937
  H     -113.708     483.663    -141.033
  H     -114.590     484.135    -139.600
  H     -115.456     483.671    -141.045

 3  4  5  6  7  8  9  10  11  12  22  25  29  30  31  32 0
 6-311+G(2d,p)
 ****
 33  36  37 0
 6-311+G(2d,p)
 ****
 1  2  13  14  15  16  17  18  19  20  21  23  24  26 0
 3-21G
 ****
 27  28  34  35  38  39  40  41  42  43  44  45  46  47  48 0
 3-21G
 ****


