%nproc=1
%NoSave
%Mem=1900MB
#P OB98/GEN NMR

erre ene a

0 1
  C      268.306    -272.956       2.564
  O      268.602    -271.759       1.871
  P      267.970    -271.578       0.406
  C      268.284    -272.795      -1.871
  O      268.544    -272.791      -0.470
  C      268.956    -273.994      -2.533
  O      268.822    -275.157      -1.695
  C      268.351    -274.381      -3.869
  O      268.792    -273.503      -4.888
  C      268.853    -275.811      -4.027
  O      270.160    -275.837      -4.624
  C      268.906    -276.310      -2.563
  N      267.863    -277.277      -2.266
  C      268.282    -278.609      -2.145
  O      269.467    -278.900      -2.308
  N      267.340    -279.574      -1.882
  C      266.094    -279.238      -1.756
  N      265.207    -280.235      -1.490
  C      265.609    -277.850      -1.896
  C      266.537    -276.930      -2.155
  O      268.742    -270.303      -0.169
  O      266.487    -271.404       0.385
  H      270.440    -276.776      -4.604
  H      268.202    -269.842      -0.839
  H      264.560    -277.625      -1.782
  H      266.269    -275.887      -2.275
  H      269.875    -276.783      -2.357
  H      268.198    -276.406      -4.669
  H      267.256    -274.377      -3.814
  H      270.026    -273.771      -2.639
  H      265.568    -281.176      -1.406
  H      268.685    -271.879      -2.314
  H      264.219    -280.074      -1.353
  H      267.202    -272.816      -2.030
  P      267.865    -273.337      -6.183
  C      267.019    -275.014      -7.929
  O      268.030    -274.712      -6.987
  O      268.715    -272.318      -7.079
  O      266.467    -272.862      -5.961
  H      268.201    -272.058      -7.866
  H      267.331    -275.884      -8.510
  H      266.865    -274.172      -8.608
  H      266.085    -275.252      -7.410
  H      268.788    -272.944       3.519
  H      268.658    -273.793       1.998
  H      267.248    -273.037       2.699

 3  4  5  6  7  8  9  10  11  12  13  21  23  27  28  29  30  32 0
 6-311+G(2d,p)
 ****
 34  35 0
 6-311+G(2d,p)
 ****
 1  2  14  15  16  17  18  19  20  22  24  25  26 0
 3-21G
 ****
 31  33  36  37  38  39  40  41  42  43  44  45  46 0
 3-21G
 ****


