%nproc=1
%NoSave
%Mem=1900MB
#P OB98/GEN NMR

erre ene a

0 1
  C     -192.796     237.587      10.160
  O     -191.774     238.496      10.542
  P     -191.967     240.045      10.164
  C     -189.751     240.275       8.813
  O     -190.498     240.654       9.958
  C     -188.410     241.011       8.781
  O     -188.666     242.436       8.669
  C     -187.531     240.803      10.020
  O     -186.167     240.857       9.581
  C     -187.840     242.025      10.866
  O     -186.820     242.308      11.818
  C     -188.013     243.083       9.783
  N     -189.367     247.875       8.891
  C     -188.428     247.087       8.251
  N     -187.808     247.640       7.186
  N     -188.127     245.869       8.618
  C     -188.841     245.446       9.690
  C     -189.766     246.143      10.430
  C     -190.117     247.475       9.989
  O     -191.004     248.174      10.474
  N     -190.211     245.410      11.499
  C     -189.617     244.242      11.356
  N     -188.813     244.201      10.249
  O     -192.456     240.689      11.544
  O     -192.909     240.324       9.035
  H     -187.012     243.182      12.212
  H     -193.431     240.728      11.590
  H     -189.571     248.799       8.549
  H     -189.732     243.396      12.013
  H     -187.054     243.485       9.431
  H     -188.777     241.866      11.415
  H     -188.013     248.560       6.829
  H     -187.728     239.866      10.544
  H     -187.138     247.072       6.678
  H     -187.872     240.704       7.875
  H     -190.319     240.544       7.917
  H     -189.602     239.192       8.815
  P     -185.211     239.629       9.959
  C     -183.104     240.677      11.042
  O     -183.701     240.149       9.875
  O     -185.340     238.669       8.680
  O     -185.587     238.901      11.208
  H     -185.250     237.740       8.958
  H     -182.017     240.608      10.947
  H     -183.413     240.129      11.937
  H     -183.383     241.730      11.149
  H     -192.532     236.600      10.476
  H     -192.908     237.603       9.096
  H     -193.719     237.874      10.620

 3  4  5  6  7  8  9  10  11  12  23  26  30  31 0
 6-311+G(2d,p)
 ****
 33  35  36  37  38 0
 6-311+G(2d,p)
 ****
 1  2  13  14  15  16  17  18  19  20  21  22  24  25 0
 3-21G
 ****
 27  28  29  32  34  39  40  41  42  43  44  45  46  47  48  49 0
 3-21G
 ****


