%nproc=1
%NoSave
%Mem=1900MB
#P OB98/GEN NMR

erre ene a

0 1
  C     -428.895    1039.021    -374.780
  O     -428.528    1037.664    -374.929
  H     -428.192    1039.633    -375.354
  H     -428.846    1039.323    -373.735
  H     -429.902    1039.193    -375.172
  P     -429.415    1036.557    -374.173
  C     -431.498    1037.078    -375.608
  O     -430.539    1036.104    -375.226
  C     -432.657    1036.416    -376.338
  O     -432.222    1035.883    -377.609
  C     -433.289    1035.244    -375.579
  O     -434.194    1035.733    -374.603
  C     -433.970    1034.511    -376.728
  O     -435.185    1035.198    -377.088
  C     -432.933    1034.632    -377.839
  N     -432.205    1029.705    -378.807
  C     -433.365    1030.446    -378.805
  N     -434.520    1029.771    -379.059
  N     -433.408    1031.732    -378.564
  C     -432.209    1032.260    -378.253
  C     -430.989    1031.626    -378.199
  C     -430.937    1030.204    -378.526
  O     -429.938    1029.519    -378.554
  N     -429.990    1032.481    -377.781
  C     -430.601    1033.638    -377.629
  N     -431.952    1033.547    -377.885
  O     -429.959    1036.942    -372.835
  O     -428.451    1035.279    -374.090
  H     -435.526    1034.769    -377.896
  H     -427.956    1035.267    -373.252
  H     -432.237    1028.714    -378.985
  H     -430.120    1034.557    -377.331
  H     -433.392    1034.699    -378.838
  H     -434.251    1033.488    -376.461
  H     -434.571    1028.767    -378.981
  H     -432.530    1034.585    -375.143
  H     -435.383    1030.289    -379.031
  H     -433.407    1037.193    -376.567
  H     -430.995    1037.802    -376.266
  H     -431.876    1037.611    -374.732
  P     -434.448    1034.920    -373.237
  C     -432.395    1035.830    -371.945
  O     -433.819    1035.842    -372.082
  O     -433.950    1033.508    -373.246
  O     -436.015    1035.049    -372.974
  H     -436.556    1034.342    -373.412
  H     -432.108    1036.481    -371.146
  H     -431.946    1036.165    -372.857
  H     -432.066    1034.835    -371.730

 6  7  8  9  10  11  12  13  14  15  26  29  33  34 0
 6-311+G(2d,p)
 ****
 36  38  39  40  41 0
 6-311+G(2d,p)
 ****
 1  2  3  4  5  16  17  18  19  20  21  22  23  24  25 0
 3-21G
 ****
 27  28  30  31  32  35  37  42  43  44  45  46  47 0
 3-21G
 ****
 48  49 0
 3-21G
 ****


