%nproc=1
%NoSave
%Mem=1900MB
#P OB98/GEN NMR

erre ene a

0 1
  C      447.476     647.519     127.000
  O      448.165     647.316     125.763
  P      448.188     648.494     124.680
  C      448.068     647.449     122.326
  O      448.918     647.943     123.354
  C      448.867     647.151     121.059
  O      449.463     648.346     120.519
  C      450.031     646.200     121.288
  O      449.555     644.862     121.442
  C      450.878     646.440     120.059
  O      450.376     645.687     118.918
  C      450.665     647.943     119.813
  N      451.809     648.753     120.219
  C      453.072     648.287     119.796
  O      453.156     647.238     119.146
  N      454.192     649.023     120.111
  C      454.061     650.114     120.802
  N      455.198     650.799     121.094
  C      452.757     650.627     121.266
  C      451.686     649.898     120.946
  O      448.686     649.819     125.176
  O      446.654     648.590     124.214
  H      449.493     646.066     118.712
  H      446.466     649.512     123.951
  H      452.706     651.559     121.840
  H      450.691     650.210     121.264
  H      450.475     648.143     118.740
  H      451.912     646.137     120.194
  H      450.589     646.501     122.186
  H      448.184     646.738     120.309
  H      456.080     650.420     120.757
  H      447.287     648.178     122.109
  H      455.203     651.689     121.581
  H      447.562     646.544     122.701
  P      450.265     643.952     122.561
  C      450.428     641.433     121.992
  O      449.620     642.480     122.484
  O      449.655     644.543     123.938
  O      451.769     644.003     122.570
  H      450.332     644.487     124.639
  H      449.983     640.484     122.291
  H      451.440     641.477     122.383
  H      450.460     641.474     120.901
  H      447.559     646.639     127.603
  H      446.444     647.721     126.804
  H      447.910     648.349     127.518

 3  4  5  6  7  8  9  10  11  12  13  23  27  28  29  30  32 0
 6-311+G(2d,p)
 ****
 34  35 0
 6-311+G(2d,p)
 ****
 1  2  14  15  16  17  18  19  20  21  22  24  25  26 0
 3-21G
 ****
 31  33  36  37  38  39  40  41  42  43  44  45  46 0
 3-21G
 ****


