%nproc=1
%NoSave
%Mem=1900MB
#P OB98/GEN NMR

erre ene a

0 1
  C      218.214     645.817     202.974
  O      218.918     646.519     201.951
  P      218.571     646.219     200.414
  C      219.867     645.082     198.488
  O      219.550     645.059     199.878
  C      220.935     644.025     198.151
  O      222.228     644.451     198.667
  C      220.622     642.645     198.743
  O      220.688     641.591     197.778
  C      221.582     642.536     199.917
  O      221.849     641.185     200.290
  C      222.772     643.381     199.457
  N      223.559     643.871     200.592
  C      224.435     642.969     201.184
  O      224.521     641.784     200.848
  N      225.190     643.452     202.226
  C      225.096     644.698     202.767
  O      225.754     645.068     203.731
  C      224.106     645.597     202.148
  C      223.397     645.141     201.102
  O      218.465     647.421     199.522
  O      217.161     645.456     200.500
  H      222.679     641.173     200.810
  H      216.606     645.759     199.756
  H      225.845     642.805     202.648
  H      223.982     646.578     202.564
  H      222.649     645.773     200.635
  H      223.449     642.790     198.826
  H      221.116     643.021     200.786
  H      219.589     642.600     199.118
  H      221.005     643.966     197.061
  H      220.254     646.068     198.224
  H      218.954     644.943     197.899
  P      219.457     640.653     197.367
  C      218.213     638.617     198.369
  O      219.242     639.575     198.528
  O      219.505     640.099     195.985
  O      218.192     641.634     197.523
  H      217.576     641.478     196.793
  H      217.951     638.213     199.353
  H      218.576     637.796     197.737
  H      217.315     639.060     197.916
  H      218.567     646.136     203.933
  H      218.380     644.766     202.864
  H      217.167     646.023     202.893

 3  4  5  6  7  8  9  10  11  12  13  23  28  29  30  31  32 0
 6-311+G(2d,p)
 ****
 33  34 0
 6-311+G(2d,p)
 ****
 1  2  14  15  16  17  18  19  20  21  22  24  25  26  27 0
 3-21G
 ****
 35  36  37  38  39  40  41  42  43  44  45 0
 3-21G
 ****


