%nproc=1
%NoSave
%Mem=1900MB
#P OB98/GEN NMR

erre ene a

0 1
  C     -177.408       8.554     -42.765
  O     -177.541       9.132     -44.052
  P     -176.482      10.249     -44.502
  C     -175.549       8.824     -46.504
  O     -175.303       9.475     -45.270
  C     -174.397       9.081     -47.480
  O     -174.618       8.301     -48.686
  C     -174.239      10.548     -47.905
  O     -172.837      10.795     -48.068
  C     -174.947      10.586     -49.247
  O     -174.531      11.676     -50.054
  C     -174.577       9.209     -49.805
  N     -175.472       8.752     -50.869
  C     -175.056       8.919     -52.185
  O     -173.992       9.447     -52.507
  N     -175.930       8.478     -53.146
  C     -177.175       7.963     -52.927
  O     -177.922       7.600     -53.826
  C     -177.580       7.855     -51.517
  C     -176.721       8.237     -50.572
  O     -175.833      10.646     -43.097
  O     -177.087      11.380     -45.260
  H     -175.750       9.893     -42.490
  H     -175.036      11.644     -50.888
  H     -175.633       8.554     -54.108
  H     -178.567       7.465     -51.303
  H     -176.997       8.169     -49.526
  H     -173.545       9.219     -50.174
  H     -176.028      10.677     -49.085
  H     -174.657      11.242     -47.171
  H     -173.469       8.713     -47.024
  H     -176.474       9.204     -46.937
  H     -175.675       7.751     -46.326
  P     -172.307      12.305     -47.892
  C     -173.132      12.604     -45.425
  O     -173.217      13.004     -46.777
  O     -172.851      12.955     -49.254
  O     -170.828      12.440     -47.738
  H     -173.785      12.749     -49.426
  H     -173.553      13.394     -44.799
  H     -172.097      12.433     -45.123
  H     -173.715      11.690     -45.278
  H     -178.184       7.832     -42.616
  H     -177.485       9.319     -42.021
  H     -176.455       8.074     -42.686

 3  4  5  6  7  8  9  10  11  12  13  24  28  29  30  31  32 0
 6-311+G(2d,p)
 ****
 33  34 0
 6-311+G(2d,p)
 ****
 1  2  14  15  16  17  18  19  20  21  22  23  25  26  27 0
 3-21G
 ****
 35  36  37  38  39  40  41  42  43  44  45 0
 3-21G
 ****


