%nproc=1
%NoSave
%Mem=1900MB
#P OB98/GEN NMR

erre ene a

0 1
  C     -777.823     449.214    -138.346
  O     -777.838     448.159    -137.408
  H     -778.383     450.060    -137.930
  H     -778.286     448.919    -139.287
  H     -776.788     449.549    -138.532
  P     -777.298     446.722    -137.886
  C     -778.161     445.596    -135.735
  O     -778.234     445.645    -137.157
  C     -779.172     444.603    -135.166
  O     -779.095     443.346    -135.880
  C     -778.924     444.235    -133.696
  O     -779.193     445.302    -132.796
  C     -779.680     442.931    -133.563
  O     -781.062     443.092    -133.259
  C     -779.523     442.307    -134.967
  N     -778.610     441.172    -134.975
  C     -779.212     439.911    -135.005
  O     -780.428     439.741    -135.007
  N     -778.359     438.842    -134.991
  C     -776.993     438.907    -134.893
  O     -776.279     437.909    -134.839
  C     -776.417     440.263    -134.834
  C     -777.236     441.317    -134.875
  O     -775.827     446.483    -137.698
  O     -777.768     446.635    -139.412
  H     -781.126     443.578    -132.420
  H     -777.271     445.928    -139.899
  H     -778.766     437.919    -135.022
  H     -775.342     440.343    -134.759
  H     -776.834     442.329    -134.843
  H     -780.495     441.961    -135.336
  H     -779.263     442.306    -132.767
  H     -777.857     443.999    -133.587
  H     -780.186     445.000    -135.305
  H     -778.394     446.600    -135.357
  H     -777.144     445.326    -135.430
  P     -778.445     445.444    -131.393
  C     -778.608     448.027    -131.663
  O     -778.777     446.909    -130.801
  O     -777.040     444.936    -131.310
  O     -779.358     444.486    -130.456
  H     -778.765     444.078    -129.795
  H     -778.863     448.924    -131.138
  H     -779.245     447.919    -132.516
  H     -777.588     448.079    -131.983

 6  7  8  9  10  11  12  13  14  15  16  26  31  32  33  34  35 0
 6-311+G(2d,p)
 ****
 36  37 0
 6-311+G(2d,p)
 ****
 1  2  3  4  5  17  18  19  20  21  22  23  24  25 0
 3-21G
 ****
 27  28  29  30  38  39  40  41  42  43  44  45 0
 3-21G
 ****


