%nproc=1
%NoSave
%Mem=1900MB
#P OB98/GEN NMR

erre ene a

0 1
  C      536.702    -334.008     326.493
  O      537.455    -333.167     327.373
  P      539.059    -333.254     327.256
  C      539.277    -331.142     325.753
  O      539.479    -332.545     325.880
  C      539.993    -330.394     326.870
  O      541.421    -330.568     326.780
  C      539.778    -328.886     326.854
  O      538.529    -328.529     327.420
  C      540.922    -328.407     327.736
  O      540.556    -328.527     329.119
  C      542.041    -329.405     327.388
  N      546.891    -328.077     326.738
  C      546.254    -328.595     327.851
  N      547.031    -328.817     328.939
  N      544.983    -328.876     327.893
  C      544.336    -328.629     326.730
  C      544.857    -328.115     325.563
  C      546.266    -327.786     325.539
  O      546.877    -327.294     324.587
  N      543.898    -328.020     324.587
  C      542.810    -328.503     325.155
  N      543.022    -328.869     326.457
  O      539.311    -334.811     326.956
  O      539.781    -332.792     328.474
  H      539.743    -327.999     329.248
  H      540.198    -335.070     327.276
  H      547.878    -327.877     326.765
  H      541.848    -328.604     324.663
  H      542.572    -329.752     328.280
  H      541.180    -327.360     327.563
  H      548.033    -328.698     328.956
  H      539.892    -328.483     325.839
  H      546.588    -329.229     329.751
  H      539.656    -330.808     327.830
  H      538.208    -330.918     325.792
  H      539.637    -330.822     324.769
  P      537.927    -327.089     327.032
  C      537.288    -327.807     324.620
  O      538.081    -326.976     325.442
  O      539.020    -326.072     327.600
  O      536.565    -326.816     327.581
  H      538.602    -325.221     327.838
  H      536.262    -327.859     324.989
  H      537.714    -328.821     324.597
  H      537.283    -327.407     323.606
  H      535.657    -333.860     326.666
  H      536.953    -335.032     326.677
  H      536.934    -333.761     325.478

 3  4  5  6  7  8  9  10  11  12  23  26  30  31  33  0
 6-311+G(2d,p)
 ****
 35  36  37  38 0
 6-311+G(2d,p)
 ****
 1  2  13  14  15  16  17  18  19  20  21  22  24  25  27  28  29 0
 3-21G
 ****
 32  34  39  40  41  42  43  44  45  46  47  48  49 0
 3-21G
 ****


