%nproc=1
%NoSave
%Mem=1900MB
#P OB98/GEN NMR

erre ene a

0 1
  C      609.380    -407.799    -480.711
  O      608.197    -408.498    -480.396
  H      609.429    -407.653    -481.794
  H      610.252    -408.383    -480.399
  H      609.398    -406.821    -480.224
  P      607.826    -408.633    -478.839
  C      609.252    -410.761    -478.400
  O      607.952    -410.190    -478.477
  C      609.219    -412.031    -477.555
  O      609.135    -411.699    -476.149
  C      608.042    -412.954    -477.846
  O      608.291    -413.786    -478.974
  C      607.999    -413.773    -476.564
  O      609.050    -414.760    -476.580
  C      608.298    -412.703    -475.502
  N      604.409    -413.201    -472.281
  C      605.429    -414.085    -472.591
  N      605.394    -415.274    -471.956
  N      606.388    -413.832    -473.443
  C      606.276    -412.607    -474.003
  C      605.319    -411.640    -473.789
  C      604.272    -411.933    -472.835
  O      603.367    -411.178    -472.506
  N      605.551    -410.516    -474.541
  C      606.632    -410.809    -475.231
  N      607.111    -412.072    -474.955
  O      606.244    -408.372    -478.803
  O      608.550    -407.702    -477.930
  H      609.826    -414.340    -476.994
  H      606.024    -407.889    -477.984
  H      603.689    -413.453    -471.631
  H      607.116    -410.146    -475.942
  H      608.868    -413.105    -474.654
  H      607.056    -414.302    -476.433
  H      604.661    -415.560    -471.324
  H      607.105    -412.394    -477.952
  H      606.149    -415.932    -472.136
  H      610.179    -412.562    -477.702
  H      609.932    -410.037    -477.941
  H      609.601    -410.991    -479.413
  P      607.247    -413.717    -480.191
  C      605.128    -414.951    -479.325
  O      606.339    -415.047    -480.057
  O      608.153    -414.018    -481.471
  O      606.499    -412.427    -480.319
  H      607.728    -413.656    -482.275
  H      604.637    -415.902    -479.321
  H      604.491    -414.223    -479.783
  H      605.342    -414.656    -478.319

 6  7  8  9  10  11  12  13  14  15  26  29  33  34 0
 6-311+G(2d,p)
 ****
 36  38  39  40  41 0
 6-311+G(2d,p)
 ****
 1  2  3  4  5  16  17  18  19  20  21  22  23  24  25 0
 3-21G
 ****
 27  28  30  31  32  35  37  42  43  44  45  46  47 0
 3-21G
 ****
 48  49 0
 3-21G
 ****


