%nproc=1
%NoSave
%Mem=1900MB
#P OB98/GEN NMR

erre ene a

0 1
  C      484.091    -851.850    -196.874
  O      485.095    -851.893    -197.882
  P      484.857    -852.692    -199.249
  C      485.293    -855.029    -198.223
  O      485.730    -854.052    -199.167
  C      485.411    -856.428    -198.812
  O      484.651    -856.549    -200.038
  C      486.835    -856.815    -199.185
  O      487.637    -857.096    -198.048
  C      486.588    -858.015    -200.098
  O      486.347    -859.205    -199.324
  C      485.299    -857.571    -200.833
  N      485.564    -857.133    -202.201
  C      485.690    -858.144    -203.165
  O      485.706    -859.327    -202.824
  N      485.853    -857.772    -204.481
  C      485.999    -856.531    -204.787
  N      486.094    -856.212    -206.095
  C      486.004    -855.455    -203.763
  C      485.765    -855.824    -202.521
  O      485.027    -851.907    -200.495
  O      483.348    -853.245    -199.099
  H      482.864    -853.019    -199.927
  H      487.016    -859.223    -198.611
  H      486.214    -854.419    -204.051
  H      485.748    -855.068    -201.701
  H      484.572    -858.408    -200.869
  H      487.429    -858.227    -200.765
  H      487.303    -856.004    -199.770
  H      484.971    -857.136    -198.090
  H      486.058    -856.961    -206.749
  H      484.235    -854.843    -197.994
  H      485.879    -855.279    -206.442
  H      485.880    -854.930    -197.304
  P      488.924    -856.154    -197.827
  C      490.292    -857.843    -199.267
  O      490.224    -857.079    -198.088
  O      488.932    -855.918    -196.260
  O      488.907    -854.879    -198.590
  H      489.251    -854.994    -196.076
  H      491.352    -858.100    -199.450
  H      489.922    -857.280    -200.135
  H      489.695    -858.747    -199.137
  H      484.442    -851.270    -196.046
  H      483.872    -852.845    -196.546
  H      483.204    -851.403    -197.272

 3  4  5  6  7  8  9  10  11  12  13  24  27  28  29  30  32 0
 6-311+G(2d,p)
 ****
 34  35 0
 6-311+G(2d,p)
 ****
 1  2  14  15  16  17  18  19  20  21  22  23  25  26 0
 3-21G
 ****
 31  33  36  37  38  39  40  41  42  43  44  45  46 0
 3-21G
 ****


