%nproc=1
%NoSave
%Mem=1900MB
#P OB98/GEN NMR

erre ene a

0 1
  C      -97.756      57.180      23.136
  O      -96.412      57.028      23.545
  H      -98.299      57.721      23.916
  H      -98.230      56.205      22.993
  H      -97.808      57.760      22.210
  P      -95.428      56.159      22.620
  C      -96.007      53.826      23.591
  O      -96.156      54.729      22.505
  C      -97.001      52.675      23.460
  O      -98.360      53.156      23.500
  C      -96.906      51.889      22.156
  O      -95.780      51.030      22.095
  C      -98.219      51.125      22.211
  O      -98.103      50.038      23.147
  C      -99.179      52.216      22.748
  N      -99.906      52.909      21.684
  C     -100.943      52.195      21.067
  O     -101.209      51.046      21.420
  N     -101.632      52.789      20.036
  C     -101.303      53.980      19.643
  N     -101.987      54.504      18.586
  C     -100.231      54.774      20.276
  C      -99.578      54.182      21.274
  O      -93.994      56.115      23.038
  O      -95.642      56.748      21.146
  H      -97.329      49.510      22.877
  H      -95.045      56.249      20.536
  H      -99.993      55.759      19.904
  H      -98.766      54.694      21.778
  H      -99.903      51.786      23.450
  H      -98.511      50.697      21.248
  H      -96.929      52.562      21.292
  H      -96.866      52.022      24.335
  H     -102.686      53.915      18.152
  H      -96.168      54.381      24.520
  H     -101.617      55.284      18.054
  H      -94.995      53.409      23.597
  P      -95.200      50.653      20.644
  C      -96.319      48.302      20.743
  O      -96.168      49.525      20.038
  O      -93.860      49.854      20.993
  O      -94.958      51.809      19.723
  H      -93.085      50.450      20.990
  H      -96.992      47.664      20.210
  H      -96.712      48.499      21.719
  H      -95.367      47.822      20.832

 6  7  8  9  10  11  12  13  14  15  16  26  30  31  32  33  35 0
 6-311+G(2d,p)
 ****
 37  38 0
 6-311+G(2d,p)
 ****
 1  2  3  4  5  17  18  19  20  21  22  23  24  25 0
 3-21G
 ****
 27  28  29  34  36  39  40  41  42  43  44  45  46 0
 3-21G
 ****


