%nproc=1
%NoSave
%Mem=1900MB
#P OB98/GEN NMR

erre ene a

0 1
  C     -438.165    -616.496     747.762
  O     -439.450    -617.032     747.493
  P     -440.720    -616.131     747.884
  C     -441.247    -615.622     745.384
  O     -440.955    -615.101     746.678
  C     -442.485    -614.950     744.812
  O     -442.303    -613.519     744.761
  C     -442.835    -615.367     743.387
  O     -443.430    -616.659     743.366
  C     -443.765    -614.229     742.983
  O     -445.074    -614.441     743.540
  C     -443.094    -613.015     743.648
  N     -442.685    -608.836     740.719
  C     -443.694    -609.309     741.473
  N     -443.741    -610.438     742.208
  C     -442.578    -611.111     742.121
  C     -441.463    -610.770     741.369
  C     -441.544    -609.567     740.642
  N     -440.509    -609.087     739.865
  N     -440.472    -611.711     741.502
  C     -440.970    -612.605     742.327
  N     -442.235    -612.281     742.738
  O     -440.158    -615.201     749.060
  O     -441.925    -616.904     748.317
  H     -445.397    -615.302     743.200
  H     -440.851    -615.016     749.721
  H     -444.601    -608.694     741.498
  H     -440.457    -613.498     742.654
  H     -443.821    -612.307     744.062
  H     -443.878    -614.134     741.893
  H     -441.937    -615.366     742.760
  H     -443.329    -615.155     745.492
  H     -441.430    -616.700     745.459
  H     -440.704    -608.305     739.267
  H     -439.716    -609.697     739.693
  H     -440.378    -615.464     744.736
  P     -443.596    -617.372     741.935
  C     -441.050    -617.701     741.780
  O     -442.192    -617.086     741.211
  O     -444.587    -616.359     741.190
  O     -444.031    -618.791     741.987
  H     -444.301    -615.431     741.272
  H     -440.185    -617.473     741.162
  H     -441.186    -618.786     741.825
  H     -440.882    -617.308     742.795
  H     -437.415    -617.195     747.454
  H     -438.069    -616.309     748.811
  H     -438.041    -615.580     747.223

 3  4  5  6  7  8  9  10  11  12  22  25  29  30  31  32 0
 6-311+G(2d,p)
 ****
 33  36  37 0
 6-311+G(2d,p)
 ****
 1  2  13  14  15  16  17  18  19  20  21  23  24  26 0
 3-21G
 ****
 27  28  34  35  38  39  40  41  42  43  44  45  46  47  48 0
 3-21G
 ****


