%nproc=1
%NoSave
%Mem=1900MB
#P OB98/GEN NMR

erre ene a

0 1
  C       51.052    -136.692     548.732
  O       52.025    -136.095     547.872
  P       52.911    -134.904     548.491
  C       55.296    -135.727     549.103
  O       54.453    -135.155     548.111
  C       56.781    -135.644     548.708
  O       57.015    -136.289     547.425
  C       57.303    -134.213     548.604
  O       58.682    -134.223     549.016
  C       57.250    -133.935     547.107
  O       58.125    -132.861     546.747
  C       57.641    -135.317     546.547
  N       57.241    -135.508     545.150
  C       58.261    -135.564     544.203
  O       59.439    -135.388     544.539
  N       57.919    -135.776     542.883
  C       56.681    -135.863     542.540
  N       56.406    -136.067     541.217
  C       55.562    -135.742     543.504
  C       55.917    -135.568     544.778
  O       52.860    -135.198     550.072
  O       52.395    -133.540     548.170
  H       59.029    -133.104     547.041
  H       52.619    -134.383     550.544
  H       54.545    -135.800     543.167
  H       55.169    -135.476     545.565
  H       58.723    -135.472     546.613
  H       56.232    -133.664     546.810
  H       56.742    -133.492     549.210
  H       57.359    -136.203     549.453
  H       57.202    -136.148     540.589
  H       55.029    -136.777     549.272
  H       55.479    -136.152     540.843
  H       55.121    -135.209     550.059
  P       59.034    -133.774     550.509
  C       59.461    -135.959     551.808
  O       60.049    -134.900     551.053
  O       57.677    -134.155     551.287
  O       59.422    -132.343     550.748
  H       57.738    -133.854     552.210
  H       60.230    -136.712     552.008
  H       58.645    -136.423     551.240
  H       59.089    -135.580     552.755
  H       50.535    -137.465     548.203
  H       50.352    -135.948     549.050
  H       51.541    -137.111     549.587

 3  4  5  6  7  8  9  10  11  12  13  21  23  27  28  29  30  32 0
 6-311+G(2d,p)
 ****
 34  35 0
 6-311+G(2d,p)
 ****
 1  2  14  15  16  17  18  19  20  22  24  25  26 0
 3-21G
 ****
 31  33  36  37  38  39  40  41  42  43  44  45  46 0
 3-21G
 ****


