%nproc=1
%NoSave
%Mem=1900MB
#P OB98/GEN NMR

erre ene a

0 1
  C     -186.216     320.847     270.692
  O     -186.096     319.638     271.442
  P     -186.151     318.231     270.679
  C     -187.930     316.492     269.995
  O     -187.650     317.655     270.757
  C     -189.279     315.877     270.402
  O     -189.197     315.373     271.766
  C     -190.440     316.879     270.337
  O     -191.562     316.393     269.597
  C     -190.700     317.214     271.796
  O     -192.018     317.689     272.031
  C     -190.292     315.924     272.517
  N     -189.937     316.170     273.919
  C     -190.977     316.242     274.829
  O     -192.165     316.188     274.498
  N     -190.627     316.443     276.135
  C     -189.362     316.651     276.598
  O     -189.100     316.873     277.774
  C     -188.300     316.628     275.583
  C     -188.630     316.390     274.308
  O     -185.083     317.253     271.035
  O     -186.032     318.659     269.134
  H     -192.066     318.019     272.954
  H     -185.475     317.997     268.680
  H     -191.379     316.481     276.809
  H     -187.286     316.814     275.905
  H     -187.871     316.381     273.536
  H     -191.113     315.195     272.517
  H     -190.011     318.014     272.094
  H     -190.149     317.791     269.805
  H     -189.468     315.030     269.730
  H     -187.143     315.755     270.158
  H     -187.902     316.740     268.929
  P     -192.021     316.956     268.173
  C     -193.442     318.931     267.285
  O     -192.942     318.241     268.412
  O     -192.581     315.946     267.227
  O     -190.668     317.577     267.576
  H     -190.613     317.373     266.627
  H     -193.718     319.945     267.587
  H     -194.337     318.425     266.915
  H     -192.696     318.988     266.491
  H     -186.158     321.685     271.355
  H     -187.157     320.859     270.183
  H     -185.422     320.903     269.976

 3  4  5  6  7  8  9  10  11  12  13  23  28  29  30  31  32 0
 6-311+G(2d,p)
 ****
 33  34 0
 6-311+G(2d,p)
 ****
 1  2  14  15  16  17  18  19  20  21  22  24  25  26  27 0
 3-21G
 ****
 35  36  37  38  39  40  41  42  43  44  45 0
 3-21G
 ****


