%nproc=1
%NoSave
%Mem=1900MB
#P OB98/GEN NMR

erre ene a

0 1
  C       92.025      38.394    -223.369
  O       91.969      36.982    -223.382
  H       92.301      38.744    -224.367
  H       92.786      38.730    -222.659
  H       91.055      38.824    -223.105
  P       91.329      36.221    -222.126
  C       93.403      36.401    -220.601
  O       92.057      36.801    -220.818
  C       93.641      36.086    -219.122
  O       94.945      35.443    -218.990
  C       93.650      37.330    -218.209
  O       93.139      36.924    -216.932
  C       95.136      37.626    -218.134
  O       95.439      38.527    -217.101
  C       95.681      36.201    -218.006
  N       97.118      36.103    -218.224
  C       97.932      36.046    -217.098
  O       97.509      36.050    -215.945
  N       99.280      35.994    -217.341
  C       99.873      35.998    -218.570
  O      101.085      35.928    -218.730
  C       98.961      36.091    -219.721
  C       97.646      36.137    -219.499
  O       91.293      34.732    -222.219
  O       89.857      36.840    -222.019
  H       89.218      36.242    -222.450
  H       96.402      38.710    -217.076
  H       99.886      35.952    -216.537
  H       99.402      36.119    -220.707
  H       96.943      36.206    -220.323
  H       95.437      35.778    -217.027
  H       95.477      38.088    -219.064
  H       93.046      38.152    -218.601
  H       92.893      35.357    -218.789
  H       94.057      37.219    -220.916
  H       93.618      35.516    -221.211
  P       91.572      36.766    -216.621
  C       91.224      38.836    -215.121
  O       90.929      38.216    -216.365
  O       91.274      35.788    -215.528
  O       90.908      36.290    -217.997
  H       90.181      35.669    -217.805
  H       90.740      39.789    -215.074
  H       92.282      38.968    -215.030
  H       90.872      38.218    -214.322

 6  7  8  9  10  11  12  13  14  15  16  27  31  32  33  34  35 0
 6-311+G(2d,p)
 ****
 36  37 0
 6-311+G(2d,p)
 ****
 1  2  3  4  5  17  18  19  20  21  22  23  24  25 0
 3-21G
 ****
 26  28  29  30  38  39  40  41  42  43  44  45 0
 3-21G
 ****


