%nproc=1
%NoSave
%Mem=1900MB
#P OB98/GEN NMR

erre ene a

0 1
  C      207.689     -22.824      71.573
  O      206.455     -23.508      71.598
  P      206.239     -24.769      72.572
  C      207.322     -27.096      72.745
  O      207.019     -25.997      71.891
  C      208.577     -27.811      72.257
  O      209.741     -26.931      72.309
  C      208.981     -29.012      73.100
  O      208.117     -30.126      73.110
  C      210.407     -29.248      72.628
  O      210.429     -29.977      71.399
  C      210.898     -27.793      72.408
  N      211.806     -27.351      73.475
  C      213.154     -27.623      73.265
  O      213.593     -28.191      72.265
  N      213.997     -27.238      74.271
  C      213.629     -26.669      75.458
  O      214.437     -26.392      76.340
  C      212.185     -26.428      75.626
  C      211.355     -26.777      74.641
  O      204.821     -25.053      72.931
  O      207.177     -24.424      73.830
  H      209.814     -29.537      70.786
  H      208.119     -24.314      73.616
  H      214.982     -27.436      74.156
  H      211.862     -25.966      76.555
  H      210.284     -26.607      74.738
  H      211.434     -27.713      71.448
  H      210.992     -29.820      73.355
  H      209.042     -28.685      74.154
  H      208.430     -28.088      71.208
  H      206.479     -27.796      72.727
  H      207.438     -26.743      73.780
  P      208.148     -31.260      74.235
  C      210.134     -32.179      75.614
  O      209.633     -31.836      74.339
  O      207.020     -32.246      74.214
  O      208.032     -30.389      75.575
  H      207.564     -30.898      76.259
  H      211.177     -32.508      75.503
  H      209.561     -32.997      76.047
  H      210.116     -31.310      76.280
  H      207.638     -22.021      70.868
  H      208.466     -23.501      71.287
  H      207.899     -22.431      72.546

 3  4  5  6  7  8  9  10  11  12  13  23  28  29  30  31  32 0
 6-311+G(2d,p)
 ****
 33  34 0
 6-311+G(2d,p)
 ****
 1  2  14  15  16  17  18  19  20  21  22  24  25  26  27 0
 3-21G
 ****
 35  36  37  38  39  40  41  42  43  44  45 0
 3-21G
 ****


