%nproc=1
%NoSave
%Mem=1900MB
#P OB98/GEN NMR

erre ene a

0 1
  C       -3.038     -32.356      -2.340
  O       -4.098     -31.593      -2.876
  H       -2.470     -32.792      -3.166
  H       -3.427     -33.167      -1.720
  H       -2.368     -31.724      -1.752
  P       -5.092     -30.845      -1.863
  C       -5.822     -28.822      -3.307
  O       -6.154     -30.113      -2.823
  C       -7.017     -28.203      -4.025
  O       -7.310     -28.903      -5.254
  C       -8.325     -28.241      -3.243
  O       -8.378     -27.316      -2.171
  C       -9.303     -27.899      -4.352
  O       -9.235     -26.491      -4.639
  C       -8.732     -28.738      -5.518
  N       -9.384     -30.040      -5.647
  C      -10.762     -30.029      -5.891
  O      -11.376     -28.968      -5.979
  N      -11.425     -31.228      -5.996
  C      -10.774     -32.340      -5.847
  N      -11.482     -33.498      -5.955
  C       -9.327     -32.397      -5.569
  C       -8.701     -31.226      -5.485
  O       -4.446     -29.971      -0.837
  O       -5.981     -32.017      -1.234
  H       -8.291     -26.250      -4.654
  H       -6.608     -31.608      -0.590
  H       -8.836     -33.348      -5.424
  H       -7.637     -31.185      -5.277
  H       -8.825     -28.200      -6.469
  H      -10.339     -28.127      -4.099
  H       -8.541     -29.257      -2.891
  H       -6.741     -27.176      -4.298
  H      -12.473     -33.428      -6.145
  H       -4.966     -28.919      -3.982
  H      -11.072     -34.405      -5.777
  H       -5.544     -28.169      -2.473
  P       -9.274     -27.725      -0.900
  C       -7.815     -26.892       1.099
  O       -8.930     -26.667       0.251
  O       -8.595     -29.082      -0.402
  O      -10.737     -27.879      -1.177
  H       -9.091     -29.857      -0.728
  H       -7.736     -26.091       1.804
  H       -6.923     -26.939       0.510
  H       -7.946     -27.816       1.622

 6  7  8  9  10  11  12  13  14  15  16  26  30  31  32  33  35 0
 6-311+G(2d,p)
 ****
 37  38 0
 6-311+G(2d,p)
 ****
 1  2  3  4  5  17  18  19  20  21  22  23  24  25 0
 3-21G
 ****
 27  28  29  34  36  39  40  41  42  43  44  45  46 0
 3-21G
 ****


