%nproc=1
%NoSave
%Mem=1900MB
#P OB98/GEN NMR

erre ene a

0 1
  C        0.314    -376.453     114.399
  O       -0.319    -376.890     113.212
  H        1.388    -376.629     114.306
  H       -0.059    -377.012     115.263
  H        0.150    -375.382     114.545
  P       -1.923    -376.844     113.141
  C       -1.789    -374.447     112.157
  O       -2.278    -375.274     113.204
  C       -2.926    -373.629     111.556
  O       -3.628    -372.883     112.574
  C       -2.490    -372.575     110.540
  O       -2.110    -373.118     109.286
  C       -3.762    -371.747     110.453
  O       -4.736    -372.440     109.656
  C       -4.194    -371.698     111.942
  N       -3.740    -370.487     112.628
  C       -4.644    -369.417     112.674
  O       -5.760    -369.519     112.159
  N       -4.252    -368.248     113.278
  C       -3.058    -368.143     113.772
  N       -2.702    -366.944     114.314
  C       -2.076    -369.246     113.757
  C       -2.476    -370.371     113.174
  O       -2.651    -377.703     114.122
  O       -2.266    -377.190     111.615
  H       -5.617    -372.134     109.947
  H       -3.249    -377.185     111.522
  H       -1.090    -369.104     114.177
  H       -1.806    -371.224     113.106
  H       -5.284    -371.772     112.036
  H       -3.609    -370.763     109.993
  H       -1.690    -371.944     110.950
  H       -3.649    -374.333     111.116
  H       -3.388    -366.191     114.268
  H       -1.322    -375.092     111.402
  H       -1.733    -366.690     114.458
  H       -1.032    -373.756     112.545
  P       -1.196    -372.219     108.320
  C        1.057    -373.351     108.989
  O        0.266    -372.171     108.980
  O       -1.770    -370.742     108.557
  O       -1.200    -372.611     106.871
  H       -2.439    -370.514     107.892
  H        1.995    -373.148     109.462
  H        1.227    -373.674     107.983
  H        0.544    -374.120     109.528

 6  7  8  9  10  11  12  13  14  15  16  26  30  31  32  33  35 0
 6-311+G(2d,p)
 ****
 37  38 0
 6-311+G(2d,p)
 ****
 1  2  3  4  5  17  18  19  20  21  22  23  24  25 0
 3-21G
 ****
 27  28  29  34  36  39  40  41  42  43  44  45  46 0
 3-21G
 ****


