%nproc=1
%NoSave
%Mem=1900MB
#P OB98/GEN NMR

erre ene a

0 1
  C      -10.664    -436.588    -202.241
  O       -9.714    -437.064    -201.306
  H      -11.039    -435.623    -201.898
  H      -11.503    -437.281    -202.334
  H      -10.186    -436.451    -203.218
  P       -9.220    -438.584    -201.438
  C       -6.872    -437.917    -202.274
  O       -8.098    -438.572    -202.591
  C       -5.682    -438.629    -202.914
  O       -5.436    -439.895    -202.269
  C       -5.879    -438.971    -204.383
  O       -5.954    -437.859    -205.246
  C       -4.800    -440.017    -204.608
  O       -3.522    -439.434    -204.858
  C       -4.793    -440.749    -203.246
  N       -5.426    -442.062    -203.315
  C       -4.603    -443.150    -203.063
  O       -3.403    -443.051    -202.812
  N       -5.203    -444.380    -203.136
  C       -6.498    -444.620    -203.482
  O       -6.972    -445.746    -203.555
  C       -7.310    -443.426    -203.780
  C       -6.750    -442.222    -203.684
  O      -10.303    -439.601    -201.655
  O       -8.365    -438.828    -200.106
  H       -2.850    -440.053    -204.514
  H       -8.214    -439.792    -199.949
  H       -4.625    -445.184    -202.941
  H       -8.339    -443.578    -204.068
  H       -7.327    -441.328    -203.893
  H       -3.759    -440.890    -202.895
  H       -5.028    -440.668    -205.454
  H       -6.840    -439.493    -204.487
  H       -4.793    -438.005    -202.769
  H       -6.757    -437.938    -201.184
  H       -6.917    -436.877    -202.607
  P       -6.644    -437.892    -206.680
  C       -8.892    -438.024    -205.346
  O       -8.160    -438.396    -206.509
  O       -5.836    -438.468    -207.800
  O       -6.844    -436.316    -206.981
  H       -6.738    -436.195    -207.946
  H       -9.876    -438.442    -205.395
  H       -8.960    -436.957    -205.293
  H       -8.391    -438.393    -204.476

 6  7  8  9  10  11  12  13  14  15  16  26  31  32  33  34  35 0
 6-311+G(2d,p)
 ****
 36  37 0
 6-311+G(2d,p)
 ****
 1  2  3  4  5  17  18  19  20  21  22  23  24  25 0
 3-21G
 ****
 27  28  29  30  38  39  40  41  42  43  44  45 0
 3-21G
 ****


