%nproc=1
%NoSave
%Mem=1900MB
#P OB98/GEN NMR

erre ene a

0 1
  C        2.390    -261.540     -22.284
  O        2.494    -262.648     -21.412
  H        2.437    -261.904     -23.313
  H        3.225    -260.857     -22.118
  H        1.441    -261.019     -22.140
  P        2.311    -262.417     -19.837
  C        4.793    -262.381     -19.126
  O        3.608    -261.620     -19.320
  C        5.758    -261.650     -18.186
  O        6.436    -260.609     -18.935
  C        5.069    -260.992     -16.987
  O        5.910    -261.108     -15.841
  C        4.959    -259.535     -17.399
  O        4.904    -258.658     -16.275
  C        6.211    -259.355     -18.254
  N        5.828    -254.342     -18.762
  C        6.070    -255.108     -17.638
  N        6.212    -254.444     -16.470
  N        6.161    -256.414     -17.657
  C        6.020    -256.943     -18.897
  C        5.777    -256.292     -20.083
  C        5.657    -254.850     -20.043
  O        5.429    -254.119     -21.006
  N        5.677    -257.181     -21.126
  C        5.855    -258.363     -20.568
  N        6.056    -258.275     -19.215
  O        1.984    -263.648     -19.051
  O        1.149    -261.326     -19.729
  H        5.029    -257.746     -16.618
  H        0.312    -261.733     -19.444
  H        5.758    -253.342     -18.689
  H        5.848    -259.310     -21.092
  H        7.098    -259.124     -17.655
  H        4.050    -259.386     -17.996
  H        6.178    -253.439     -16.389
  H        4.096    -261.435     -16.775
  H        6.421    -254.980     -15.638
  H        6.527    -262.358     -17.857
  H        5.270    -262.526     -20.101
  H        4.531    -263.359     -18.710
  P        5.802    -262.419     -14.922
  C        4.171    -261.707     -13.067
  O        4.339    -262.466     -14.258
  O        6.932    -262.634     -13.974
  O        5.730    -263.604     -16.004
  H        6.190    -264.389     -15.646
  H        3.166    -261.812     -12.716
  H        4.372    -260.676     -13.270
  H        4.849    -262.062     -12.319

 6  7  8  9  10  11  12  13  14  15  26  29  33  34 0
 6-311+G(2d,p)
 ****
 36  38  39  40  41 0
 6-311+G(2d,p)
 ****
 1  2  3  4  5  16  17  18  19  20  21  22  23  24  25 0
 3-21G
 ****
 27  28  30  31  32  35  37  42  43  44  45  46  47 0
 3-21G
 ****
 48  49 0
 3-21G
 ****


