%nproc=1
%NoSave
%Mem=1900MB
#P OB98/GEN NMR

erre ene a

0 1
  C      109.584      56.483    -109.564
  O      109.523      57.776    -108.998
  H      108.649      55.958    -109.349
  H      110.410      55.919    -109.119
  H      109.714      56.534    -110.649
  P      110.648      58.851    -109.390
  C      112.205      58.396    -107.383
  O      112.034      58.303    -108.790
  C      113.680      58.225    -107.002
  O      114.054      56.827    -107.214
  C      114.649      59.091    -107.840
  O      115.755      59.427    -106.993
  C      115.066      58.103    -108.916
  O      116.191      58.546    -109.625
  C      115.219      56.837    -108.066
  N      115.314      55.614    -108.856
  C      116.220      54.645    -108.430
  O      116.921      54.756    -107.428
  N      116.307      53.526    -109.218
  C      115.599      53.288    -110.361
  O      115.700      52.256    -111.015
  C      114.677      54.361    -110.775
  C      114.576      55.458    -110.016
  O      110.332      60.270    -109.059
  O      110.836      58.639    -110.969
  H      110.315      59.310    -111.452
  H      116.392      57.935    -110.366
  H      116.960      52.814    -108.925
  H      114.114      54.216    -111.687
  H      113.909      56.270    -110.288
  H      116.095      56.912    -107.413
  H      114.259      57.980    -109.648
  H      114.182      60.004    -108.220
  H      113.795      58.426    -105.930
  H      111.605      57.608    -106.912
  H      111.841      59.372    -107.038
  P      115.774      60.723    -106.039
  C      116.920      62.273    -107.752
  O      115.775      62.050    -106.944
  O      116.870      60.701    -105.021
  O      114.340      60.745    -105.322
  H      114.443      61.077    -104.408
  H      116.797      63.183    -108.302
  H      117.039      61.457    -108.434
  H      117.787      62.347    -107.129

 6  7  8  9  10  11  12  13  14  15  16  27  31  32  33  34  35 0
 6-311+G(2d,p)
 ****
 36  37 0
 6-311+G(2d,p)
 ****
 1  2  3  4  5  17  18  19  20  21  22  23  24  25 0
 3-21G
 ****
 26  28  29  30  38  39  40  41  42  43  44  45 0
 3-21G
 ****


