%nproc=1
%NoSave
%Mem=1900MB
#P OB98/GEN NMR

erre ene a

0 1
  C      302.178     278.363     -71.389
  O      302.212     279.464     -70.504
  H      302.652     278.638     -72.335
  H      302.739     277.535     -70.944
  H      301.150     278.038     -71.567
  P      301.214     280.682     -70.806
  C      302.815     282.724     -70.726
  O      302.088     281.815     -71.540
  C      303.358     283.879     -71.567
  O      304.375     283.356     -72.469
  C      302.296     284.593     -72.418
  O      302.583     285.996     -72.417
  C      302.540     284.042     -73.813
  O      302.103     284.926     -74.839
  C      304.049     283.828     -73.789
  N      307.037     283.192     -77.855
  C      307.025     284.127     -76.883
  N      306.226     284.193     -75.799
  C      305.417     283.118     -75.738
  C      305.317     282.084     -76.652
  C      306.169     282.154     -77.769
  N      306.144     281.246     -78.799
  N      304.329     281.197     -76.269
  C      303.824     281.704     -75.161
  N      304.448     282.869     -74.804
  O      300.960     281.291     -69.346
  O      299.938     280.316     -71.487
  H      302.016     284.425     -75.675
  H      300.214     280.828     -68.923
  H      307.745     284.936     -76.991
  H      302.993     281.293     -74.604
  H      304.611     284.754     -73.973
  H      302.008     283.091     -73.928
  H      301.267     284.426     -72.078
  H      303.859     284.589     -70.898
  H      303.656     282.193     -70.263
  H      306.713     281.436     -79.609
  H      305.429     280.528     -78.800
  H      302.160     283.104     -69.933
  P      301.536     286.961     -71.680
  C      301.503     288.690     -73.628
  O      300.757     287.813     -72.789
  O      302.476     288.047     -70.972
  O      300.663     286.260     -70.689
  H      302.077     288.348     -70.137
  H      300.840     289.181     -74.309
  H      302.227     288.127     -74.179
  H      302.002     289.421     -73.026

 6  7  8  9  10  11  12  13  14  15  25  28  32  33  34  35 0
 6-311+G(2d,p)
 ****
 36  39  40 0
 6-311+G(2d,p)
 ****
 1  2  3  4  5  16  17  18  19  20  21  22  23  24 0
 3-21G
 ****
 26  27  29  30  31  37  38  41  42  43  44  45  46  47 0
 3-21G
 ****
 48 0
 3-21G
 ****


