%nproc=1
%NoSave
%Mem=1900MB
#P OB98/GEN NMR

erre ene a

0 1
  C      835.653     121.615     178.569
  O      834.514     121.986     179.326
  H      835.826     120.546     178.696
  H      836.531     122.159     178.939
  H      835.496     121.834     177.512
  P      833.953     123.468     179.093
  C      835.144     124.564     181.159
  O      833.924     124.194     180.527
  C      834.963     124.601     182.677
  O      833.990     125.597     183.055
  C      834.404     123.320     183.262
  O      835.354     122.265     183.286
  C      834.007     123.792     184.656
  O      835.116     123.763     185.563
  C      833.549     125.245     184.384
  N      832.110     125.396     184.553
  C      831.611     125.026     185.808
  O      832.381     124.628     186.682
  N      830.258     125.078     186.018
  C      829.467     125.443     185.054
  N      828.132     125.450     185.322
  C      829.948     125.844     183.717
  C      831.271     125.793     183.535
  O      832.405     123.210     178.783
  O      834.663     124.244     178.045
  H      834.764     124.039     186.434
  H      831.971     122.624     179.421
  H      829.253     126.147     182.952
  H      831.720     126.069     182.579
  H      834.047     125.936     185.077
  H      833.229     123.152     185.086
  H      833.488     123.015     182.730
  H      835.922     124.862     183.133
  H      827.837     125.124     186.235
  H      835.486     125.540     180.797
  H      827.423     125.642     184.623
  H      835.901     123.826     180.884
  P      834.913     120.755     183.587
  C      836.393     120.950     185.681
  O      836.017     120.135     184.576
  O      834.631     119.910     182.384
  O      833.650     120.929     184.558
  H      833.837     121.408     185.389
  H      837.128     120.439     186.267
  H      835.533     121.151     186.285
  H      836.800     121.872     185.322

 6  7  8  9  10  11  12  13  14  15  16  26  30  31  32  33  35 0
 6-311+G(2d,p)
 ****
 37  38 0
 6-311+G(2d,p)
 ****
 1  2  3  4  5  17  18  19  20  21  22  23  24  25 0
 3-21G
 ****
 27  28  29  34  36  39  40  41  42  43  44  45  46 0
 3-21G
 ****


