%nproc=1
%NoSave
%Mem=1900MB
#P OB98/GEN NMR

erre ene a

0 1
  C     1187.624    -110.896     165.974
  O     1188.650    -111.328     166.862
  P     1188.820    -112.917     167.085
  C     1191.376    -112.894     166.500
  O     1190.068    -113.353     166.167
  C     1192.358    -114.078     166.510
  O     1191.917    -115.084     167.469
  C     1192.555    -114.761     165.151
  O     1193.941    -115.125     165.063
  C     1191.677    -115.994     165.275
  O     1192.081    -117.020     164.369
  C     1191.892    -116.346     166.758
  N     1190.855    -117.227     167.293
  C     1191.094    -118.590     167.214
  O     1192.088    -119.068     166.662
  N     1190.127    -119.394     167.753
  C     1188.935    -118.987     168.268
  O     1188.096    -119.743     168.750
  C     1188.684    -117.533     168.224
  C     1189.632    -116.737     167.733
  O     1187.545    -113.467     166.308
  O     1188.930    -113.291     168.523
  H     1187.320    -112.973     165.506
  H     1192.903    -117.448     164.724
  H     1190.304    -120.388     167.737
  H     1187.726    -117.168     168.556
  H     1189.472    -115.665     167.651
  H     1192.864    -116.821     166.914
  H     1190.637    -115.740     165.079
  H     1192.274    -114.127     164.314
  H     1193.339    -113.690     166.861
  H     1191.368    -112.433     167.492
  H     1191.673    -112.125     165.777
  P     1194.960    -114.091     164.372
  C     1195.465    -112.849     166.620
  O     1195.005    -112.782     165.277
  O     1194.079    -113.626     163.111
  O     1196.271    -114.674     163.958
  H     1193.163    -113.404     163.361
  H     1195.641    -111.829     166.970
  H     1196.409    -113.399     166.673
  H     1194.719    -113.324     167.247
  H     1187.625    -109.827     165.921
  H     1186.675    -111.235     166.334
  H     1187.801    -111.301     165.000

 3  4  5  6  7  8  9  10  11  12  13  24  28  29  30  31  32 0
 6-311+G(2d,p)
 ****
 33  34 0
 6-311+G(2d,p)
 ****
 1  2  14  15  16  17  18  19  20  21  22  23  25  26  27 0
 3-21G
 ****
 35  36  37  38  39  40  41  42  43  44  45 0
 3-21G
 ****


