%nproc=1
%NoSave
%Mem=1900MB
#P OB98/GEN NMR

erre ene a

0 1
  C      516.345    -553.967     745.429
  O      515.180    -554.769     745.504
  H      516.469    -553.577     744.417
  H      516.240    -553.127     746.122
  H      517.222    -554.554     745.715
  P      515.114    -556.042     744.533
  C      516.657    -557.553     745.969
  O      516.479    -556.862     744.737
  C      516.762    -559.055     745.712
  O      517.904    -559.290     744.856
  C      516.930    -559.911     746.980
  O      515.876    -560.873     747.069
  C      518.242    -560.655     746.766
  O      518.199    -562.011     747.197
  C      518.466    -560.547     745.261
  N      522.495    -563.658     744.980
  C      521.169    -563.912     744.964
  N      520.145    -563.034     744.933
  C      520.605    -561.772     744.895
  C      521.929    -561.354     744.881
  C      522.902    -562.366     744.952
  N      524.253    -562.105     745.023
  N      522.004    -559.968     744.851
  C      520.760    -559.560     744.891
  N      519.875    -560.612     744.930
  O      515.276    -555.401     743.076
  O      513.868    -556.854     744.641
  H      517.633    -562.488     746.561
  H      514.592    -555.760     742.476
  H      520.887    -564.958     744.979
  H      520.433    -558.528     744.926
  H      517.944    -561.346     744.710
  H      519.035    -560.134     747.313
  H      516.966    -559.308     747.896
  H      515.868    -559.371     745.157
  H      515.796    -557.365     746.619
  H      524.870    -562.884     745.186
  H      524.554    -561.147     745.114
  H      517.555    -557.176     746.464
  P      514.939    -560.799     748.378
  C      513.185    -559.023     747.648
  O      514.326    -559.320     748.445
  O      516.003    -560.809     749.579
  O      513.961    -561.915     748.488
  H      515.592    -561.182     750.383
  H      512.898    -558.004     747.802
  H      512.377    -559.667     747.927
  H      513.422    -559.175     746.616

 6  7  8  9  10  11  12  13  14  15  25  28  32  33  34  35 0
 6-311+G(2d,p)
 ****
 36  39  40 0
 6-311+G(2d,p)
 ****
 1  2  3  4  5  16  17  18  19  20  21  22  23  24 0
 3-21G
 ****
 26  27  29  30  31  37  38  41  42  43  44  45  46  47  48 0
 3-21G
 ****


