%nproc=1
%NoSave
%Mem=1900MB
#P OB98/GEN NMR

erre ene a

0 1
  C     -408.938     -17.543     121.429
  O     -410.247     -17.118     121.769
  P     -410.536     -16.413     123.180
  C     -409.129     -14.364     122.519
  O     -409.305     -15.420     123.456
  C     -408.576     -13.119     123.208
  O     -408.323     -12.104     122.208
  C     -409.529     -12.520     124.237
  O     -408.765     -11.999     125.327
  C     -410.181     -11.354     123.511
  O     -410.625     -10.347     124.436
  C     -409.053     -10.917     122.571
  N     -409.013      -6.670     119.690
  C     -408.368      -6.983     120.835
  N     -408.447      -8.120     121.558
  C     -409.252      -9.009     120.958
  C     -409.975      -8.832     119.788
  C     -409.835      -7.593     119.140
  N     -410.484      -7.279     117.965
  N     -410.720      -9.960     119.498
  C     -410.435     -10.804     120.465
  N     -409.545     -10.281     121.366
  O     -410.842     -17.345     124.299
  O     -411.749     -15.413     122.890
  H     -411.079     -10.813     125.169
  H     -412.364     -15.397     123.647
  H     -407.703      -6.218     121.222
  H     -410.852     -11.795     120.565
  H     -408.357     -10.229     123.066
  H     -411.053     -11.709     122.955
  H     -410.265     -13.241     124.606
  H     -407.615     -13.372     123.669
  H     -410.105     -14.129     122.080
  H     -410.229      -6.417     117.511
  H     -410.955      -8.024     117.468
  H     -408.460     -14.694     121.720
  P     -409.497     -12.007     126.764
  C     -407.621     -13.610     127.597
  O     -409.004     -13.360     127.462
  O     -410.970     -11.796     126.645
  O     -408.709     -10.832     127.517
  H     -407.811     -10.699     127.141
  H     -407.488     -14.591     128.061
  H     -407.165     -12.857     128.246
  H     -407.134     -13.606     126.621
  H     -408.949     -17.986     120.455
  H     -408.599     -18.263     122.145
  H     -408.278     -16.701     121.430

 3  4  5  6  7  8  9  10  11  12  22  25  29  30  31  32 0
 6-311+G(2d,p)
 ****
 33  36  37 0
 6-311+G(2d,p)
 ****
 1  2  13  14  15  16  17  18  19  20  21  23  24  26 0
 3-21G
 ****
 27  28  34  35  38  39  40  41  42  43  44  45  46  47  48 0
 3-21G
 ****


