%nproc=1
%NoSave
%Mem=1900MB
#P OB98/GEN NMR

erre ene a

0 1
  C     -342.062    -899.329    -899.149
  O     -342.341    -898.449    -898.049
  P     -341.179    -897.489    -897.489
  C     -342.345    -895.149    -897.239
  O     -341.461    -895.999    -897.999
  C     -343.777    -895.279    -897.779
  O     -344.257    -896.639    -897.649
  C     -344.787    -894.419    -897.069
  O     -344.706    -893.059    -897.459
  C     -346.092    -895.099    -897.479
  O     -346.530    -894.629    -898.779
  C     -345.702    -896.569    -897.539
  N     -346.167    -897.329    -896.379
  C     -347.367    -898.029    -896.549
  O     -348.038    -897.969    -897.579
  N     -347.790    -898.749    -895.459
  C     -347.181    -898.819    -894.239
  O     -347.603    -899.469    -893.309
  C     -345.947    -897.999    -894.109
  C     -345.509    -897.299    -895.149
  O     -339.934    -897.929    -898.399
  O     -340.870    -897.649    -896.029
  H     -346.869    -893.719    -898.639
  H     -339.106    -897.769    -897.899
  H     -348.634    -899.289    -895.579
  H     -345.443    -897.999    -893.159
  H     -344.619    -896.699    -895.069
  H     -346.079    -897.039    -898.439
  H     -346.909    -894.879    -896.779
  H     -344.659    -894.529    -895.989
  H     -343.746    -895.039    -898.869
  H     -342.015    -894.129    -897.349
  H     -342.297    -895.429    -896.199
  P     -343.753    -892.089    -896.579
  C     -342.041    -891.689    -898.509
  O     -342.295    -892.229    -897.229
  O     -343.675    -892.939    -895.219
  O     -344.303    -890.709    -896.429
  H     -343.710    -893.899    -895.359
  H     -342.631    -890.779    -898.689
  H     -342.273    -892.439    -899.279
  H     -340.982    -891.449    -898.569
  H     -342.941    -899.890    -899.389
  H     -341.274    -900.000    -898.878
  H     -341.763    -898.753    -900.000

 3  4  5  6  7  8  9  10  11  12  13  23  28  29  30  31  32 0
 6-311+G(2d,p)
 ****
 33  34 0
 6-311+G(2d,p)
 ****
 1  2  14  15  16  17  18  19  20  21  22  24  25  26 0
 3-21G
 ****
 27  35  36  37  38  39  40  41  42  43  44  45 0
 3-21G
 ****


