%nproc=1
%NoSave
%Mem=1900MB
#P OB98/GEN NMR

erre ene a

0 1
  C      782.902    1457.872     327.684
  O      782.243    1456.992     328.569
  H      783.981    1457.708     327.768
  H      782.680    1458.900     327.946
  H      782.596    1457.678     326.648
  P      780.646    1456.878     328.447
  C      780.687    1454.494     327.418
  O      780.349    1455.865     327.246
  C      779.827    1453.631     326.493
  O      778.460    1453.628     327.008
  C      779.769    1454.114     325.041
  O      779.708    1452.971     324.186
  C      778.435    1454.844     324.972
  O      777.898    1454.951     323.676
  C      777.587    1453.995     325.915
  N      776.402    1454.688     326.399
  C      775.206    1454.482     325.707
  O      775.067    1453.692     324.785
  N      774.146    1455.237     326.127
  C      774.158    1456.175     327.129
  O      773.173    1456.832     327.441
  C      775.452    1456.346     327.813
  C      776.495    1455.614     327.419
  O      780.237    1458.308     327.849
  O      779.930    1456.562     329.719
  H      780.067    1458.941     328.569
  H      778.529    1455.469     323.126
  H      773.272    1455.095     325.644
  H      775.499    1457.095     328.601
  H      777.462    1455.736     327.892
  H      777.286    1453.062     325.422
  H      778.555    1455.860     325.383
  H      780.603    1454.761     324.748
  H      780.181    1452.587     326.549
  H      780.504    1454.202     328.441
  H      781.750    1454.364     327.178
  P      780.920    1452.781     323.143
  C      780.939    1450.169     323.394
  O      781.618    1451.399     323.569
  O      781.938    1453.908     323.626
  O      780.482    1452.886     321.717
  H      781.932    1454.038     324.587
  H      781.561    1449.367     323.734
  H      780.713    1450.031     322.357
  H      780.030    1450.180     323.959

 6  7  8  9  10  11  12  13  14  15  16  27  31  32  33  34  35 0
 6-311+G(2d,p)
 ****
 36  37 0
 6-311+G(2d,p)
 ****
 1  2  3  4  5  17  18  19  20  21  22  23  24  25 0
 3-21G
 ****
 26  28  29  30  38  39  40  41  42  43  44  45 0
 3-21G
 ****


