%nproc=1
%NoSave
%Mem=1900MB
#P OB98/GEN NMR

erre ene a

0 1
  C      515.158     123.169    -745.684
  O      514.531     122.830    -744.461
  H      514.589     122.749    -746.523
  H      515.180     124.255    -745.780
  H      516.185     122.792    -745.705
  P      514.391     121.254    -744.152
  C      512.095     120.949    -745.304
  O      513.476     120.633    -745.319
  C      511.295     119.858    -746.009
  O      509.882     120.091    -745.753
  C      511.503     119.814    -747.543
  O      511.803     118.481    -747.972
  C      510.150     120.217    -748.106
  O      509.840     119.544    -749.330
  C      509.188     119.831    -746.984
  N      504.740     120.276    -749.451
  C      505.604     119.239    -749.344
  N      506.717     119.144    -748.584
  C      506.899     120.273    -747.872
  C      506.097     121.404    -747.865
  C      504.976     121.393    -748.707
  N      504.141     122.468    -748.868
  N      506.621     122.368    -747.001
  C      507.724     121.840    -746.540
  N      507.954     120.585    -747.051
  O      513.436     121.227    -742.862
  O      515.682     120.561    -743.894
  H      509.662     118.605    -749.096
  H      513.923     120.810    -742.127
  H      505.359     118.365    -749.933
  H      508.433     122.339    -745.881
  H      508.940     118.758    -747.007
  H      510.136     121.296    -748.282
  H      512.292     120.505    -747.878
  H      511.551     118.884    -745.564
  H      511.933     121.910    -745.825
  H      503.432     122.417    -749.583
  H      504.373     123.333    -748.404
  H      511.767     121.058    -744.262
  P      513.299     118.250    -748.531
  C      513.031     119.100    -750.987
  O      513.570     119.343    -749.684
  O      513.172     116.863    -749.341
  O      514.340     118.161    -747.475
  H      513.812     116.208    -748.993
  H      513.293     119.908    -751.638
  H      511.966     119.024    -750.924
  H      513.431     118.186    -751.374

 6  7  8  9  10  11  12  13  14  15  25  28  32  33  34  35 0
 6-311+G(2d,p)
 ****
 36  39  40 0
 6-311+G(2d,p)
 ****
 1  2  3  4  5  16  17  18  19  20  21  22  23  24 0
 3-21G
 ****
 26  27  29  30  31  37  38  41  42  43  44  45  46  47  48 0
 3-21G
 ****


