%nproc=1
%NoSave
%Mem=1900MB
#P OB98/GEN NMR

erre ene a

0 1
  C      130.221     109.231      79.914
  O      129.171     108.285      79.897
  H      129.922     110.098      79.320
  H      131.117     108.792      79.469
  H      130.433     109.559      80.935
  P      129.256     107.089      80.964
  C      129.888     105.459      79.045
  O      130.222     105.976      80.325
  C      129.882     103.935      79.076
  O      129.421     103.408      77.814
  C      131.248     103.305      79.330
  O      131.553     103.260      80.717
  C      131.022     101.909      78.775
  O      130.259     101.129      79.720
  C      130.174     102.195      77.529
  N      132.780      99.911      73.826
  C      132.188      99.375      74.953
  N      132.317      98.041      75.122
  N      131.534     100.080      75.839
  C      131.508     101.404      75.553
  C      132.061     102.054      74.474
  C      132.767     101.260      73.495
  O      133.300     101.685      72.473
  N      131.829     103.403      74.524
  C      131.155     103.572      75.644
  N      130.937     102.390      76.307
  O      127.799     106.428      80.870
  O      129.576     107.504      82.360
  H      130.021     100.295      79.276
  H      127.271     106.722      81.637
  H      133.281      99.325      73.182
  H      130.797     104.522      76.014
  H      129.449     101.398      77.327
  H      131.954     101.369      78.599
  H      132.826      97.442      74.491
  H      132.038     103.805      78.757
  H      131.887      97.627      75.940
  H      129.163     103.619      79.843
  H      130.629     105.807      78.317
  H      128.900     105.831      78.758
  P      132.987     102.696      81.161
  C      132.048     100.315      81.578
  O      132.980     101.116      80.867
  O      132.918     102.780      82.757
  O      134.158     103.445      80.627
  H      133.535     103.464      83.082
  H      132.158      99.293      81.282
  H      131.054     100.645      81.359
  H      132.230     100.404      82.629

 6  7  8  9  10  11  12  13  14  15  26  29  33  34 0
 6-311+G(2d,p)
 ****
 36  38  39  40  41 0
 6-311+G(2d,p)
 ****
 1  2  3  4  5  16  17  18  19  20  21  22  23  24  25 0
 3-21G
 ****
 27  28  30  31  32  35  37  42  43  44  45  46  47 0
 3-21G
 ****
 48  49 0
 3-21G
 ****


