%nproc=1
%NoSave
%Mem=1900MB
#P OB98/GEN NMR

erre ene a

0 1
  C      237.443    -551.320    -122.732
  O      236.292    -550.966    -123.472
  H      237.864    -550.418    -122.284
  H      238.189    -551.763    -123.396
  H      237.187    -552.024    -121.935
  P      235.375    -552.160    -124.025
  C      233.528    -552.031    -122.198
  O      234.606    -552.770    -122.753
  C      232.201    -552.705    -122.540
  O      232.240    -554.078    -122.052
  C      230.976    -552.029    -121.909
  O      229.885    -552.120    -122.833
  C      230.682    -552.905    -120.705
  O      229.339    -552.825    -120.250
  C      231.057    -554.284    -121.254
  N      231.301    -555.261    -120.195
  C      230.189    -555.809    -119.560
  O      229.024    -555.596    -119.882
  N      230.464    -556.643    -118.507
  C      231.702    -556.953    -118.023
  O      231.881    -557.689    -117.060
  C      232.834    -556.335    -118.729
  C      232.586    -555.530    -119.762
  O      236.444    -553.293    -124.391
  O      234.492    -551.811    -125.175
  H      236.744    -553.193    -125.313
  H      229.285    -553.318    -119.406
  H      229.671    -557.049    -118.037
  H      233.832    -556.550    -118.367
  H      233.397    -555.040    -120.291
  H      230.270    -554.654    -121.922
  H      231.338    -552.624    -119.873
  H      231.136    -550.982    -121.629
  H      232.102    -552.758    -123.629
  H      233.530    -551.020    -122.615
  H      233.656    -551.966    -121.113
  P      228.875    -550.872    -122.906
  C      230.025    -549.450    -124.781
  O      229.764    -549.632    -123.397
  O      228.620    -550.591    -121.353
  O      227.653    -551.161    -123.709
  H      229.403    -550.755    -120.803
  H      230.630    -548.578    -124.918
  H      229.100    -549.329    -125.305
  H      230.542    -550.306    -125.162

 6  7  8  9  10  11  12  13  14  15  16  27  31  32  33  34  35 0
 6-311+G(2d,p)
 ****
 36  37 0
 6-311+G(2d,p)
 ****
 1  2  3  4  5  17  18  19  20  21  22  23  24  25 0
 3-21G
 ****
 26  28  29  30  38  39  40  41  42  43  44  45 0
 3-21G
 ****


