%nproc=1
%NoSave
%Mem=1900MB
#P OB98/GEN NMR

erre ene a

0 1
  C      -68.602      50.931     -53.402
  O      -68.524      52.022     -52.508
  H      -69.086      51.265     -54.325
  H      -69.197      50.124     -52.966
  H      -67.600      50.565     -53.639
  P      -67.935      51.704     -51.047
  C      -65.563      50.955     -50.260
  O      -66.445      51.185     -51.348
  C      -64.751      49.689     -50.515
  O      -65.597      48.520     -50.453
  C      -64.090      49.640     -51.888
  O      -62.909      50.421     -51.961
  C      -63.794      48.156     -51.994
  O      -62.654      47.831     -51.178
  C      -65.088      47.549     -51.407
  N      -66.097      47.252     -52.425
  C      -65.856      46.143     -53.244
  O      -64.834      45.472     -53.104
  N      -66.764      45.837     -54.229
  C      -67.827      46.566     -54.378
  N      -68.685      46.226     -55.377
  C      -68.128      47.731     -53.527
  C      -67.233      48.014     -52.584
  O      -68.692      50.359     -50.620
  O      -68.030      52.807     -50.048
  H      -62.376      46.930     -51.425
  H      -68.306      50.010     -49.781
  H      -69.021      48.315     -53.696
  H      -67.387      48.859     -51.922
  H      -64.873      46.629     -50.851
  H      -63.562      47.837     -53.012
  H      -64.791      49.915     -52.684
  H      -64.008      49.597     -49.712
  H      -68.420      45.460     -55.983
  H      -66.160      50.844     -49.349
  H      -69.435      46.833     -55.682
  H      -64.883      51.804     -50.141
  P      -62.401      50.868     -53.417
  C      -63.496      52.067     -55.443
  O      -63.695      51.333     -54.244
  O      -62.007      49.478     -54.103
  O      -61.260      51.837     -53.418
  H      -61.202      49.569     -54.649
  H      -64.445      52.304     -55.878
  H      -62.925      51.479     -56.131
  H      -62.968      52.972     -55.224

 6  7  8  9  10  11  12  13  14  15  16  26  30  31  32  33  35 0
 6-311+G(2d,p)
 ****
 37  38 0
 6-311+G(2d,p)
 ****
 1  2  3  4  5  17  18  19  20  21  22  23  24  25 0
 3-21G
 ****
 27  28  29  34  36  39  40  41  42  43  44  45  46 0
 3-21G
 ****


