%nproc=1
%NoSave
%Mem=1900MB
#P OB98/GEN NMR

erre ene a

0 1
  C       16.498     -30.810     -29.456
  O       17.312     -29.692     -29.167
  H       17.075     -31.522     -30.051
  H       15.619     -30.503     -30.031
  H       16.185     -31.295     -28.528
  P       16.622     -28.474     -28.387
  C       16.953     -29.315     -25.950
  O       16.044     -29.068     -27.015
  C       16.448     -28.636     -24.681
  O       16.268     -27.220     -24.922
  C       15.094     -29.139     -24.204
  O       15.180     -30.372     -23.509
  C       14.663     -27.995     -23.302
  O       15.212     -28.126     -21.982
  C       15.237     -26.763     -24.025
  N       14.196     -26.011     -24.721
  C       13.097     -25.647     -23.948
  O       12.986     -25.925     -22.756
  N       12.101     -24.979     -24.606
  C       12.075     -24.694     -25.939
  O       11.124     -24.140     -26.476
  C       13.255     -25.118     -26.708
  C       14.245     -25.752     -26.075
  O       15.312     -28.178     -29.257
  O       17.478     -27.260     -28.232
  H       15.433     -27.355     -29.765
  H       14.866     -28.970     -21.630
  H       11.297     -24.704     -24.064
  H       13.267     -24.908     -27.770
  H       15.121     -26.084     -26.622
  H       15.721     -26.089     -23.307
  H       13.582     -27.965     -23.200
  H       14.396     -29.209     -25.047
  H       17.205     -28.758     -23.896
  H       17.936     -28.908     -26.204
  H       17.047     -30.396     -25.806
  P       13.910     -31.351     -23.564
  C       14.335     -32.059     -26.062
  O       13.491     -31.435     -25.108
  O       12.796     -30.425     -22.888
  O       14.147     -32.656     -22.885
  H       12.987     -29.478     -23.013
  H       13.878     -32.011     -27.028
  H       14.485     -33.083     -25.790
  H       15.278     -31.554     -26.088

 6  7  8  9  10  11  12  13  14  15  16  27  31  32  33  34  35 0
 6-311+G(2d,p)
 ****
 36  37 0
 6-311+G(2d,p)
 ****
 1  2  3  4  5  17  18  19  20  21  22  23  24  25 0
 3-21G
 ****
 26  28  29  30  38  39  40  41  42  43  44  45 0
 3-21G
 ****


