%nproc=1
%NoSave
%Mem=1900MB
#P OB98/GEN NMR

erre ene a

0 1
  C      298.965     287.151      55.876
  O      299.792     288.256      56.213
  P      301.375     288.103      55.969
  C      303.345     289.782      55.749
  O      301.933     289.598      55.808
  C      303.680     291.188      55.256
  O      303.278     291.342      53.878
  C      302.982     292.310      56.013
  O      303.648     292.631      57.223
  C      303.111     293.449      55.019
  O      304.433     294.016      55.085
  C      302.909     292.731      53.678
  N      299.281     295.852      51.872
  C      300.524     296.094      52.344
  N      301.426     295.207      52.819
  C      300.920     293.963      52.812
  C      299.657     293.572      52.398
  C      298.816     294.579      51.898
  N      297.561     294.326      51.389
  N      299.500     292.210      52.543
  C      300.648     291.786      53.025
  N      301.542     292.806      53.196
  O      301.454     287.517      54.481
  O      302.085     287.238      56.953
  H      304.560     294.329      56.000
  H      302.300     287.047      54.352
  H      300.836     297.134      52.331
  H      300.880     290.753      53.257
  H      303.556     293.130      52.891
  H      302.404     294.265      55.214
  H      301.923     292.080      56.174
  H      304.769     291.310      55.305
  H      303.771     289.050      55.060
  H      297.100     295.067      50.886
  H      297.300     293.361      51.223
  H      303.764     289.618      56.746
  P      303.192     293.984      57.962
  C      303.495     294.794      60.416
  O      303.382     293.697      59.525
  O      301.606     293.991      57.759
  O      303.837     295.219      57.432
  H      301.259     294.902      57.792
  H      303.308     294.444      61.431
  H      302.770     295.575      60.171
  H      304.507     295.205      60.365
  H      297.944     287.391      56.089
  H      299.258     286.298      56.451
  H      299.070     286.932      54.834

 3  4  5  6  7  8  9  10  11  12  22  25  29  30  31  32 0
 6-311+G(2d,p)
 ****
 33  36  37 0
 6-311+G(2d,p)
 ****
 1  2  13  14  15  16  17  18  19  20  21  23  24  26 0
 3-21G
 ****
 27  28  34  35  38  39  40  41  42  43  44  45  46  47  48 0
 3-21G
 ****


