%nproc=1
%NoSave
%Mem=1900MB
#P OB98/GEN NMR

erre ene a

0 1
  C      635.458     940.528    -493.532
  O      634.349     941.102    -494.193
  H      635.858     941.260    -492.823
  H      636.237     940.277    -494.255
  H      635.154     939.631    -492.987
  P      633.501     940.153    -495.172
  C      631.618     940.550    -493.431
  O      632.227     939.637    -494.332
  C      630.271     940.004    -492.954
  O      629.343     939.986    -494.067
  C      630.357     938.591    -492.388
  O      629.466     938.480    -491.260
  C      629.835     937.709    -493.508
  O      629.300     936.466    -493.053
  C      628.816     938.647    -494.185
  N      628.587     938.283    -495.579
  C      627.270     937.911    -495.915
  O      626.399     937.888    -495.056
  N      627.016     937.507    -497.201
  C      627.997     937.385    -498.055
  N      627.671     936.948    -499.301
  C      629.397     937.709    -497.717
  C      629.622     938.139    -496.475
  O      634.405     938.835    -495.291
  O      633.158     940.746    -496.505
  H      629.063     935.930    -493.852
  H      634.306     938.422    -496.176
  H      630.167     937.573    -498.452
  H      630.617     938.390    -496.137
  H      627.860     938.619    -493.645
  H      630.660     937.483    -494.213
  H      631.365     938.301    -492.064
  H      629.860     940.701    -492.205
  H      626.706     936.733    -499.483
  H      631.442     941.503    -493.950
  H      628.355     936.784    -500.026
  H      632.288     940.737    -492.573
  P      630.133     938.162    -489.853
  C      630.273     940.770    -489.695
  O      630.840     939.522    -489.307
  O      631.376     937.218    -490.207
  O      629.220     937.505    -488.877
  H      631.191     936.302    -489.934
  H      630.840     941.569    -489.264
  H      629.261     940.824    -489.351
  H      630.292     940.854    -490.761

 6  7  8  9  10  11  12  13  14  15  16  26  30  31  32  33  35 0
 6-311+G(2d,p)
 ****
 37  38 0
 6-311+G(2d,p)
 ****
 1  2  3  4  5  17  18  19  20  21  22  23  24  25 0
 3-21G
 ****
 27  28  29  34  36  39  40  41  42  43  44  45  46 0
 3-21G
 ****


