%nproc=1
%NoSave
%Mem=1900MB
#P OB98/GEN NMR

erre ene a

0 1
  C      116.724    -143.802    -100.047
  O      118.025    -144.393    -100.129
  P      119.239    -143.618     -99.422
  C      119.179    -141.624    -101.083
  O      119.098    -142.048     -99.731
  C      120.137    -140.432    -101.241
  O      119.619    -139.257    -100.556
  C      121.535    -140.691    -100.673
  O      122.481    -139.930    -101.435
  C      121.444    -140.099     -99.282
  O      122.736    -139.842     -98.729
  C      120.592    -138.862     -99.565
  N      121.297    -137.540     -94.746
  C      122.188    -138.055     -95.671
  N      123.464    -138.210     -95.255
  N      121.860    -138.390     -96.891
  C      120.554    -138.148     -97.174
  C      119.574    -137.649     -96.348
  C      119.948    -137.306     -94.992
  O      119.199    -136.860     -94.127
  N      118.364    -137.570     -96.994
  C      118.615    -138.028     -98.205
  N      119.934    -138.357     -98.375
  O      120.506    -144.057    -100.300
  O      119.429    -143.974     -97.984
  H      122.608    -139.260     -97.945
  H      121.063    -144.672     -99.789
  H      121.604    -137.310     -93.818
  H      117.884    -138.144     -98.993
  H      121.183    -138.035     -99.978
  H      120.918    -140.791     -98.612
  H      123.796    -137.924     -94.345
  H      121.842    -141.742    -100.666
  H      124.147    -138.546     -95.924
  H      120.211    -140.182    -102.307
  H      118.188    -141.342    -101.451
  H      119.492    -142.470    -101.703
  P      123.335    -140.723    -102.539
  C      124.898    -141.636    -100.675
  O      124.046    -141.932    -101.767
  O      124.544    -139.725    -102.868
  O      122.569    -141.103    -103.766
  H      124.890    -139.899    -103.762
  H      124.371    -141.858     -99.742
  H      125.213    -140.588    -100.673
  H      125.787    -142.271    -100.740
  H      116.018    -144.422    -100.558
  H      116.743    -142.833    -100.501
  H      116.439    -143.709     -99.020

 3  4  5  6  7  8  9  10  11  12  23  26  30  31 0
 6-311+G(2d,p)
 ****
 33  35  36  37  38 0
 6-311+G(2d,p)
 ****
 1  2  13  14  15  16  17  18  19  20  21  22  24  25 0
 3-21G
 ****
 27  28  29  32  34  39  40  41  42  43  44  45  46  47  48  49 0
 3-21G
 ****


