%nproc=1
%NoSave
%Mem=1900MB
#P OB98/GEN NMR

erre ene a

0 1
  C     -628.509    -709.366    -328.906
  O     -628.688    -708.415    -327.877
  H     -629.429    -709.406    -329.502
  H     -628.333    -710.349    -328.472
  H     -627.684    -709.095    -329.569
  P     -627.404    -707.938    -327.040
  C     -628.068    -705.480    -327.450
  O     -627.047    -706.462    -327.551
  C     -628.902    -705.424    -328.736
  O     -629.658    -706.659    -328.868
  C     -629.909    -704.245    -328.773
  O     -630.047    -703.860    -330.145
  C     -631.171    -704.918    -328.277
  O     -632.318    -704.168    -328.599
  C     -631.055    -706.287    -328.954
  N     -631.920    -707.299    -328.334
  C     -633.186    -707.454    -328.886
  O     -633.600    -706.774    -329.828
  N     -633.999    -708.386    -328.303
  C     -633.686    -709.110    -327.181
  O     -634.467    -709.917    -326.669
  C     -632.347    -708.875    -326.619
  C     -631.542    -708.002    -327.195
  O     -626.251    -708.889    -327.022
  O     -627.967    -707.658    -325.564
  H     -633.129    -704.647    -328.318
  H     -627.279    -707.837    -324.904
  H     -634.917    -708.519    -328.690
  H     -632.073    -709.432    -325.725
  H     -630.551    -707.799    -326.808
  H     -631.317    -706.225    -330.012
  H     -631.146    -705.035    -327.184
  H     -629.604    -703.398    -328.168
  H     -628.209    -705.378    -329.594
  H     -627.594    -704.512    -327.274
  H     -628.718    -705.726    -326.600
  P     -629.060    -702.821    -330.848
  C     -628.606    -703.811    -333.177
  O     -628.094    -703.598    -331.859
  O     -628.336    -701.917    -329.903
  O     -630.003    -701.953    -331.821
  H     -629.628    -701.056    -331.939
  H     -627.879    -704.336    -333.761
  H     -628.817    -702.867    -333.635
  H     -629.505    -704.389    -333.121

 6  7  8  9  10  11  12  13  14  15  16  26  31  32  33  34  35 0
 6-311+G(2d,p)
 ****
 36  37 0
 6-311+G(2d,p)
 ****
 1  2  3  4  5  17  18  19  20  21  22  23  24  25 0
 3-21G
 ****
 27  28  29  30  38  39  40  41  42  43  44  45 0
 3-21G
 ****


