%nproc=1
%NoSave
%Mem=1900MB
#P OB98/GEN NMR

erre ene a

0 1
  C     -382.222    -607.461    -349.656
  O     -381.651    -607.698    -350.927
  H     -381.425    -607.207    -348.954
  H     -382.733    -608.360    -349.298
  H     -382.930    -606.625    -349.707
  P     -382.665    -608.115    -352.100
  C     -380.966    -607.171    -353.816
  O     -381.774    -608.273    -353.425
  C     -379.564    -607.651    -354.195
  O     -379.637    -608.793    -355.073
  C     -378.719    -606.606    -354.910
  O     -378.108    -605.720    -353.989
  C     -377.713    -607.483    -355.639
  O     -376.649    -607.905    -354.761
  C     -378.575    -608.680    -356.060
  N     -377.559    -608.960    -360.999
  C     -376.751    -609.207    -359.909
  N     -375.469    -609.516    -360.175
  N     -377.160    -609.135    -358.669
  C     -378.463    -608.775    -358.559
  C     -379.374    -608.526    -359.561
  C     -378.909    -608.636    -360.922
  O     -379.594    -608.493    -361.938
  N     -380.603    -608.212    -359.048
  C     -380.430    -608.235    -357.739
  N     -379.142    -608.558    -357.392
  O     -383.489    -606.768    -352.375
  O     -383.567    -609.260    -351.787
  H     -376.056    -608.509    -355.243
  H     -384.390    -607.005    -352.672
  H     -377.186    -609.044    -361.930
  H     -381.203    -608.028    -357.010
  H     -378.016    -609.620    -356.042
  H     -377.242    -606.958    -356.473
  H     -375.026    -609.261    -361.044
  H     -379.324    -606.050    -355.650
  H     -374.860    -609.676    -359.377
  H     -379.066    -607.980    -353.273
  H     -380.890    -606.469    -352.975
  H     -381.434    -606.664    -354.661
  P     -378.343    -604.145    -354.191
  C     -378.155    -603.918    -351.610
  O     -377.763    -603.425    -352.881
  O     -379.926    -603.987    -354.030
  O     -377.857    -603.605    -355.496
  H     -380.220    -603.127    -354.396
  H     -377.688    -603.337    -350.842
  H     -377.855    -604.941    -351.516
  H     -379.218    -603.848    -351.513

 6  7  8  9  10  11  12  13  14  15  26  29  33  34 0
 6-311+G(2d,p)
 ****
 36  38  39  40  41 0
 6-311+G(2d,p)
 ****
 1  2  3  4  5  16  17  18  19  20  21  22  23  24  25 0
 3-21G
 ****
 27  28  30  31  32  35  37  42  43  44  45  46  47 0
 3-21G
 ****
 48  49 0
 3-21G
 ****


