%nproc=1
%NoSave
%Mem=1900MB
#P OB98/GEN NMR

erre ene a

0 1
  C     -277.306    -205.080    -176.200
  O     -277.911    -206.034    -177.053
  H     -277.779    -204.109    -176.370
  H     -276.239    -204.998    -176.429
  H     -277.442    -205.365    -175.152
  P     -277.484    -207.562    -176.845
  C     -279.801    -208.304    -175.855
  O     -278.400    -208.157    -175.665
  C     -280.191    -209.776    -175.735
  O     -279.852    -210.303    -174.435
  C     -281.685    -210.028    -175.850
  O     -282.171    -209.850    -177.160
  C     -281.758    -211.465    -175.353
  O     -281.366    -212.387    -176.380
  C     -280.719    -211.446    -174.206
  N     -281.340    -211.398    -172.889
  C     -281.587    -212.636    -172.287
  O     -281.276    -213.681    -172.861
  N     -282.209    -212.660    -171.065
  C     -282.532    -211.549    -170.479
  N     -283.153    -211.641    -169.274
  C     -282.264    -210.221    -171.068
  C     -281.678    -210.221    -172.263
  O     -276.049    -207.435    -176.151
  O     -277.501    -208.402    -178.081
  H     -281.947    -212.209    -177.146
  H     -276.049    -206.874    -175.358
  H     -282.544    -209.319    -170.540
  H     -281.448    -209.288    -172.765
  H     -280.082    -212.339    -174.249
  H     -282.771    -211.745    -175.049
  H     -282.232    -209.400    -175.136
  H     -279.627    -210.340    -176.490
  H     -283.338    -212.570    -168.912
  H     -280.108    -207.899    -176.823
  H     -283.479    -210.846    -168.744
  H     -280.303    -207.717    -175.078
  P     -283.563    -209.096    -177.418
  C     -282.480    -207.171    -178.742
  O     -283.210    -207.539    -177.573
  O     -284.639    -209.396    -176.428
  O     -283.932    -209.511    -178.922
  H     -283.274    -209.247    -179.589
  H     -282.304    -206.116    -178.735
  H     -283.045    -207.433    -179.612
  H     -281.543    -207.688    -178.755

 6  7  8  9  10  11  12  13  14  15  16  26  30  31  32  33  35 0
 6-311+G(2d,p)
 ****
 37  38 0
 6-311+G(2d,p)
 ****
 1  2  3  4  5  17  18  19  20  21  22  23  24  25 0
 3-21G
 ****
 27  28  29  34  36  39  40  41  42  43  44  45  46 0
 3-21G
 ****


