%nproc=1
%NoSave
%Mem=1900MB
#P OB98/GEN NMR

erre ene a

0 1
  C      168.106     234.873    -148.456
  O      167.532     236.124    -148.130
  H      168.489     234.922    -149.479
  H      167.348     234.087    -148.405
  H      168.934     234.636    -147.784
  P      167.030     236.373    -146.628
  C      165.851     238.597    -147.196
  O      165.702     237.263    -146.724
  C      164.478     239.195    -147.497
  O      163.893     238.546    -148.648
  C      163.472     239.025    -146.368
  O      163.717     239.938    -145.318
  C      162.166     239.248    -147.115
  O      161.905     240.649    -147.289
  C      162.459     238.569    -148.469
  N      161.894     237.222    -148.568
  C      160.675     237.110    -149.232
  O      160.068     238.069    -149.696
  N      160.164     235.841    -149.322
  C      160.681     234.726    -148.729
  O      160.131     233.628    -148.763
  C      161.951     234.912    -148.016
  C      162.491     236.131    -147.972
  O      168.063     236.879    -145.677
  O      166.468     234.942    -146.177
  H      161.748     241.014    -146.395
  H      167.105     234.523    -145.567
  H      159.278     235.738    -149.789
  H      162.398     234.047    -147.544
  H      163.426     236.288    -147.447
  H      162.050     239.170    -149.294
  H      161.309     238.826    -146.587
  H      163.491     237.994    -145.997
  H      164.614     240.260    -147.742
  H      166.451     238.581    -148.111
  H      166.375     239.187    -146.436
  P      163.010     239.732    -143.898
  C      163.726     242.121    -143.277
  O      162.656     241.182    -143.312
  O      163.725     238.826    -142.953
  O      161.573     239.136    -144.275
  H      161.474     238.254    -143.869
  H      163.375     243.046    -142.870
  H      164.091     242.283    -144.270
  H      164.516     241.739    -142.665

 6  7  8  9  10  11  12  13  14  15  16  26  31  32  33  34  35 0
 6-311+G(2d,p)
 ****
 36  37 0
 6-311+G(2d,p)
 ****
 1  2  3  4  5  17  18  19  20  21  22  23  24  25 0
 3-21G
 ****
 27  28  29  30  38  39  40  41  42  43  44  45 0
 3-21G
 ****


