%nproc=1
%NoSave
%Mem=1900MB
#P OB98/GEN NMR

erre ene a

0 1
  C      203.416    -175.069      90.454
  O      202.107    -174.874      90.941
  H      203.509    -176.106      90.117
  H      204.152    -174.896      91.241
  H      203.611    -174.408      89.606
  P      201.749    -173.491      91.678
  C      201.946    -171.516      90.049
  O      201.106    -172.564      90.524
  C      201.511    -171.035      88.664
  O      201.814    -172.057      87.676
  C      200.014    -170.720      88.558
  O      199.841    -169.462      87.896
  C      199.468    -171.851      87.698
  O      198.262    -171.485      87.032
  C      200.674    -172.149      86.800
  N      200.593    -173.453      86.152
  C      199.865    -173.514      84.959
  O      199.301    -172.506      84.527
  N      199.760    -174.715      84.307
  C      200.289    -175.778      84.827
  N      200.141    -176.940      84.135
  C      201.027    -175.772      86.107
  C      201.144    -174.585      86.706
  O      202.881    -172.870      92.423
  O      200.489    -173.842      92.599
  H      197.945    -172.262      86.518
  H      200.402    -173.159      93.309
  H      201.440    -176.684      86.506
  H      201.679    -174.482      87.647
  H      200.779    -171.381      86.023
  H      199.253    -172.721      88.333
  H      199.512    -170.675      89.522
  H      202.122    -170.165      88.396
  H      199.629    -176.902      83.262
  H      202.977    -171.882      90.021
  H      200.503    -177.829      84.448
  H      201.879    -170.680      90.754
  P      198.742    -168.477      88.531
  C      199.589    -166.853      90.363
  O      199.491    -167.127      88.973
  O      198.375    -169.185      89.917
  O      197.539    -168.286      87.668
  H      197.536    -169.673      89.835
  H      200.108    -165.929      90.509
  H      200.125    -167.643      90.845
  H      198.607    -166.780      90.782

 6  7  8  9  10  11  12  13  14  15  16  26  30  31  32  33  35 0
 6-311+G(2d,p)
 ****
 37  38 0
 6-311+G(2d,p)
 ****
 1  2  3  4  5  17  18  19  20  21  22  23  24  25 0
 3-21G
 ****
 27  28  29  34  36  39  40  41  42  43  44  45  46 0
 3-21G
 ****


