%nproc=1
%NoSave
%Mem=1900MB
#P OB98/GEN NMR

erre ene a

0 1
  C      201.035     -71.038     104.586
  O      201.146     -72.205     105.382
  P      202.189     -73.331     104.906
  C      200.634     -74.508     103.170
  O      201.331     -74.588     104.407
  C      199.997     -75.863     102.849
  O      201.000     -76.897     102.805
  C      198.987     -76.321     103.893
  O      197.737     -75.667     103.736
  C      198.921     -77.816     103.621
  O      198.021     -78.106     102.541
  C      200.376     -78.131     103.219
  N      201.127     -78.784     104.286
  C      201.552     -80.082     104.024
  O      201.302     -80.666     102.966
  N      202.245     -80.702     105.027
  C      202.500     -80.183     106.262
  O      203.079     -80.811     107.144
  C      202.001     -78.817     106.498
  C      201.344     -78.195     105.518
  O      202.852     -73.837     106.269
  O      203.213     -72.856     103.931
  H      197.136     -77.799     102.823
  H      203.792     -74.057     106.120
  H      202.584     -81.633     104.844
  H      202.183     -78.377     107.469
  H      200.953     -77.192     105.674
  H      200.394     -78.782     102.338
  H      198.568     -78.377     104.495
  H      199.384     -76.157     104.903
  H      199.524     -75.797     101.860
  H      201.335     -74.233     102.380
  H      199.870     -73.730     103.241
  P      197.005     -75.162     105.074
  C      195.651     -77.395     105.151
  O      195.627     -75.987     105.123
  O      196.587     -73.672     104.645
  O      197.872     -75.246     106.283
  H      196.387     -73.606     103.692
  H      196.499     -77.774     105.724
  H      195.703     -77.773     104.127
  H      194.727     -77.753     105.612
  H      200.310     -70.380     105.017
  H      200.728     -71.308     103.597
  H      201.983     -70.545     104.542

 3  4  5  6  7  8  9  10  11  12  13  23  28  29  30  31  32 0
 6-311+G(2d,p)
 ****
 33  34 0
 6-311+G(2d,p)
 ****
 1  2  14  15  16  17  18  19  20  21  22  24  25  26 0
 3-21G
 ****
 27  35  36  37  38  39  40  41  42  43  44  45 0
 3-21G
 ****


