%nproc=1
%NoSave
%Mem=1900MB
#P OB98/GEN NMR

erre ene a

0 1
  C       37.425     309.834     114.470
  O       37.657     310.909     115.363
  P       39.173     311.421     115.532
  C       39.578     310.778     118.015
  O       39.346     311.819     117.077
  C       38.743     310.974     119.283
  O       39.266     312.106     120.018
  C       37.257     311.225     119.018
  O       36.514     310.574     120.049
  C       37.117     312.726     119.186
  O       35.783     313.097     119.527
  C       38.167     313.006     120.272
  N       38.605     314.399     120.272
  C       38.416     315.121     121.453
  O       37.831     314.605     122.405
  N       38.845     316.424     121.510
  C       39.322     316.989     120.444
  N       39.736     318.279     120.551
  C       39.423     316.297     119.144
  C       39.072     315.013     119.134
  O       39.157     312.834     114.783
  O       40.205     310.495     114.977
  H       35.476     312.504     120.249
  H       40.023     313.018     114.373
  H       39.794     316.825     118.275
  H       39.134     314.421     118.231
  H       37.766     312.768     121.267
  H       37.387     313.233     118.250
  H       36.931     310.860     118.040
  H       38.871     310.088     119.917
  H       39.643     318.735     121.450
  H       40.636     310.784     118.300
  H       40.121     318.800     119.773
  H       39.354     309.812     117.550
  P       35.030     310.073     119.697
  C       33.808     311.493     121.453
  O       34.214     310.192     121.070
  O       35.247     308.485     119.590
  O       34.375     310.611     118.468
  H       34.417     308.059     119.312
  H       33.152     311.413     122.322
  H       33.262     311.976     120.639
  H       34.683     312.090     121.727
  H       36.381     309.600     114.457
  H       37.978     308.977     114.792
  H       37.740     310.113     113.486

 3  4  5  6  7  8  9  10  11  12  13  21  23  27  28  29  30  32 0
 6-311+G(2d,p)
 ****
 34  35 0
 6-311+G(2d,p)
 ****
 1  2  14  15  16  17  18  19  20  22  24  25  26 0
 3-21G
 ****
 31  33  36  37  38  39  40  41  42  43  44  45  46 0
 3-21G
 ****


