%nproc=1
%NoSave
%Mem=1900MB
#P OB98/GEN NMR

erre ene a

0 1
  C     -289.325    -411.450    -123.481
  O     -287.942    -411.165    -123.430
  H     -289.496    -412.222    -124.235
  H     -289.878    -410.552    -123.764
  H     -289.676    -411.816    -122.513
  P     -287.459    -410.115    -122.316
  C     -286.558    -408.142    -123.737
  O     -286.240    -409.292    -122.967
  C     -285.759    -408.126    -125.040
  O     -286.196    -409.241    -125.875
  C     -285.927    -406.843    -125.867
  O     -284.675    -406.564    -126.510
  C     -286.925    -407.255    -126.937
  O     -286.873    -406.419    -128.090
  C     -286.483    -408.698    -127.176
  N     -287.387    -411.399    -131.327
  C     -286.228    -410.781    -130.889
  N     -285.139    -410.903    -131.683
  N     -286.143    -410.108    -129.775
  C     -287.299    -410.097    -129.067
  C     -288.511    -410.659    -129.388
  C     -288.598    -411.385    -130.640
  O     -289.601    -411.934    -131.088
  N     -289.450    -410.401    -128.420
  C     -288.804    -409.686    -127.517
  N     -287.498    -409.472    -127.865
  O     -286.743    -411.056    -121.236
  O     -288.538    -409.285    -121.709
  H     -287.331    -406.886    -128.820
  H     -287.374    -411.306    -120.536
  H     -287.401    -411.897    -132.198
  H     -289.234    -409.293    -126.604
  H     -285.573    -408.757    -127.783
  H     -287.944    -407.220    -126.533
  H     -285.120    -411.446    -132.529
  H     -286.249    -405.971    -125.290
  H     -284.270    -410.496    -131.359
  H     -284.705    -408.304    -124.804
  H     -286.314    -407.245    -123.158
  H     -287.634    -408.142    -123.959
  P     -283.929    -405.196    -126.148
  C     -284.131    -404.096    -128.497
  O     -283.275    -404.613    -127.488
  O     -282.651    -405.695    -125.321
  O     -284.758    -404.234    -125.358
  H     -282.372    -405.003    -124.693
  H     -283.543    -403.749    -129.320
  H     -284.702    -403.283    -128.099
  H     -284.793    -404.867    -128.832

 6  7  8  9  10  11  12  13  14  15  26  29  33  34 0
 6-311+G(2d,p)
 ****
 36  38  39  40  41 0
 6-311+G(2d,p)
 ****
 1  2  3  4  5  16  17  18  19  20  21  22  23  24  25 0
 3-21G
 ****
 27  28  30  31  32  35  37  42  43  44  45  46  47 0
 3-21G
 ****
 48  49 0
 3-21G
 ****


