%nproc=1
%NoSave
%Mem=1900MB
#P OB98/GEN NMR

erre ene a

0 1
  C      -55.301    -103.632    -338.818
  O      -56.154    -102.830    -337.992
  P      -55.866    -102.836    -336.405
  C      -58.300    -103.642    -335.862
  O      -56.908    -103.894    -335.784
  C      -58.864    -103.224    -334.500
  O      -58.738    -104.339    -333.559
  C      -58.176    -102.013    -333.871
  O      -59.193    -101.250    -333.195
  C      -57.221    -102.629    -332.858
  O      -56.855    -101.707    -331.835
  C      -58.055    -103.826    -332.388
  N      -57.255    -104.854    -331.737
  C      -57.537    -105.124    -330.400
  O      -58.366    -104.488    -329.750
  N      -56.801    -106.122    -329.816
  C      -55.770    -106.805    -330.412
  O      -55.142    -107.696    -329.843
  C      -55.436    -106.398    -331.787
  C      -56.180    -105.457    -332.373
  O      -56.438    -101.410    -335.977
  O      -54.426    -103.077    -336.077
  H      -57.237    -101.146    -336.466
  H      -56.270    -101.029    -332.225
  H      -57.011    -106.357    -328.862
  H      -54.596    -106.878    -332.265
  H      -55.954    -105.114    -333.378
  H      -58.834    -103.491    -331.684
  H      -56.314    -102.967    -333.361
  H      -57.677    -101.372    -334.609
  H      -59.939    -103.031    -334.620
  H      -58.819    -104.545    -336.191
  H      -58.484    -102.871    -336.619
  P      -60.258    -100.430    -334.092
  C      -58.765     -98.288    -333.876
  O      -59.475     -99.172    -334.711
  O      -61.146     -99.766    -332.924
  O      -61.069    -101.262    -335.038
  H      -60.613     -99.356    -332.223
  H      -58.119     -97.652    -334.497
  H      -58.127     -98.833    -333.164
  H      -59.459     -97.648    -333.325
  H      -55.602    -103.536    -339.840
  H      -55.376    -104.657    -338.519
  H      -54.289    -103.302    -338.711

 3  4  5  6  7  8  9  10  11  12  13  24  28  29  30  31  32 0
 6-311+G(2d,p)
 ****
 33  34 0
 6-311+G(2d,p)
 ****
 1  2  14  15  16  17  18  19  20  21  22  23  25  26  27 0
 3-21G
 ****
 35  36  37  38  39  40  41  42  43  44  45 0
 3-21G
 ****


