%nproc=1
%NoSave
%Mem=1900MB
#P OB98/GEN NMR

erre ene a

0 1
  C     -370.499    -583.420     269.093
  O     -369.698    -582.778     268.118
  H     -370.810    -584.393     268.697
  H     -371.390    -582.815     269.282
  H     -369.948    -583.577     270.023
  P     -368.752    -581.568     268.571
  C     -370.202    -579.626     267.694
  O     -368.987    -580.354     267.552
  C     -370.052    -578.165     267.242
  O     -369.204    -577.452     268.166
  C     -369.375    -578.043     265.867
  O     -370.246    -578.183     264.761
  C     -368.783    -576.645     265.940
  O     -369.760    -575.660     265.556
  C     -368.430    -576.494     267.424
  N     -364.483    -575.846     270.614
  C     -365.794    -575.420     270.752
  N     -366.074    -574.672     271.847
  N     -366.736    -575.678     269.880
  C     -366.285    -576.356     268.789
  C     -365.013    -576.818     268.534
  C     -363.994    -576.568     269.533
  O     -362.815    -576.914     269.462
  N     -364.951    -577.456     267.324
  C     -366.151    -577.314     266.816
  N     -367.005    -576.673     267.678
  O     -367.279    -582.074     268.181
  O     -368.831    -581.212     270.029
  H     -369.429    -574.780     265.814
  H     -366.616    -581.642     268.753
  H     -363.808    -575.637     271.335
  H     -366.460    -577.686     265.836
  H     -368.694    -575.500     267.800
  H     -367.931    -576.530     265.260
  H     -365.358    -574.349     272.480
  H     -368.549    -578.761     265.794
  H     -366.929    -574.133     271.837
  H     -371.024    -577.679     267.261
  H     -370.472    -579.658     268.746
  H     -371.007    -580.109     267.135
  P     -369.828    -579.139     263.545
  C     -368.991    -577.149     262.086
  O     -369.875    -578.240     262.208
  O     -371.104    -580.092     263.396
  O     -368.573    -579.907     263.739
  H     -370.952    -580.932     263.864
  H     -369.152    -576.663     261.147
  H     -367.982    -577.500     262.137
  H     -369.168    -576.456     262.881

 6  7  8  9  10  11  12  13  14  15  26  29  33  34 0
 6-311+G(2d,p)
 ****
 36  38  39  40  41 0
 6-311+G(2d,p)
 ****
 1  2  3  4  5  16  17  18  19  20  21  22  23  24  25 0
 3-21G
 ****
 27  28  30  31  32  35  37  42  43  44  45  46  47 0
 3-21G
 ****
 48  49 0
 3-21G
 ****


