%nproc=1
%NoSave
%Mem=1900MB
#P OB98/GEN NMR

erre ene a

0 1
  C        8.636      33.986       0.218
  O        9.783      34.264      -0.561
  H        8.845      33.123       0.853
  H        7.797      33.745      -0.438
  H        8.382      34.839       0.854
  P        9.818      35.679      -1.318
  C       10.990      36.956       0.612
  O        9.819      36.807      -0.176
  C       11.268      38.434       0.871
  O       12.365      38.585       1.797
  C       11.644      39.230      -0.374
  O       10.494      39.647      -1.095
  C       12.353      40.417       0.255
  O       11.378      41.334       0.797
  C       13.136      39.753       1.396
  N       17.897      39.190       3.047
  C       16.794      39.717       3.689
  N       16.989      40.165       4.947
  N       15.607      39.803       3.147
  C       15.565      39.338       1.876
  C       16.590      38.800       1.132
  C       17.892      38.696       1.749
  O       18.899      38.227       1.225
  N       16.168      38.439      -0.121
  C       14.895      38.780      -0.142
  N       14.481      39.332       1.045
  O        8.348      35.778      -1.949
  O       10.869      35.813      -2.367
  H       10.798      41.601       0.061
  H        8.399      35.565      -2.900
  H       18.790      39.157       3.506
  H       14.231      38.641      -0.983
  H       13.225      40.404       2.273
  H       12.952      40.980      -0.463
  H       17.881      40.150       5.416
  H       12.346      38.679      -1.012
  H       16.193      40.552       5.438
  H       10.378      38.863       1.349
  H       11.838      36.514       0.079
  H       10.850      36.431       1.562
  P       10.706      40.526      -2.420
  C       10.340      38.434      -3.908
  O       11.192      39.521      -3.575
  O       12.023      41.366      -2.076
  O        9.569      41.419      -2.780
  H       11.797      42.311      -1.970
  H       10.789      37.854      -4.687
  H        9.396      38.810      -4.243
  H       10.193      37.819      -3.045

 6  7  8  9  10  11  12  13  14  15  26  29  33  34 0
 6-311+G(2d,p)
 ****
 36  38  39  40  41 0
 6-311+G(2d,p)
 ****
 1  2  3  4  5  16  17  18  19  20  21  22  23  24  25 0
 3-21G
 ****
 27  28  30  31  32  35  37  42  43  44  45  46  47 0
 3-21G
 ****
 48  49 0
 3-21G
 ****


