%nproc=1
%NoSave
%Mem=1900MB
#P OB98/GEN NMR

erre ene a

0 1
  C      238.452    -400.979      42.957
  O      237.532    -399.940      43.230
  H      237.943    -401.939      43.078
  H      239.287    -400.930      43.663
  H      238.823    -400.902      41.931
  P      238.028    -398.441      42.935
  C      235.605    -397.584      42.392
  O      236.757    -397.503      43.212
  C      234.564    -396.548      42.820
  O      233.926    -397.008      44.037
  C      235.152    -395.162      43.093
  O      234.200    -394.179      42.680
  C      235.282    -395.130      44.607
  O      235.308    -393.799      45.115
  C      234.066    -395.969      45.030
  N      234.212    -396.523      46.375
  C      234.199    -395.612      47.434
  O      234.084    -394.404      47.213
  N      234.360    -396.077      48.712
  C      234.579    -397.338      48.915
  N      234.756    -397.734      50.205
  C      234.645    -398.331      47.824
  C      234.444    -397.860      46.593
  O      238.157    -398.446      41.340
  O      239.277    -398.052      43.653
  H      236.153    -393.378      44.845
  H      237.405    -398.869      40.893
  H      234.843    -399.370      48.043
  H      234.468    -398.519      45.735
  H      233.152    -395.359      45.005
  H      236.210    -395.624      44.914
  H      236.104    -394.997      42.581
  H      233.784    -396.501      42.052
  H      234.727    -397.019      50.918
  H      235.167    -398.585      42.450
  H      234.988    -398.679      50.473
  H      235.914    -397.408      41.357
  P      234.527    -393.247      41.421
  C      232.088    -392.724      40.735
  O      233.326    -392.207      41.207
  O      234.981    -393.956      40.190
  O      235.701    -392.301      41.979
  H      236.363    -392.196      41.268
  H      231.382    -391.926      40.639
  H      231.716    -393.448      41.430
  H      232.235    -393.187      39.782

 6  7  8  9  10  11  12  13  14  15  16  26  30  31  32  33  35 0
 6-311+G(2d,p)
 ****
 37  38 0
 6-311+G(2d,p)
 ****
 1  2  3  4  5  17  18  19  20  21  22  23  24  25 0
 3-21G
 ****
 27  28  29  34  36  39  40  41  42  43  44  45  46 0
 3-21G
 ****


