%nproc=1
%NoSave
%Mem=1900MB
#P OB98/GEN NMR

erre ene a

0 1
  C      429.647     772.112    -206.636
  O      428.289     772.141    -206.255
  H      429.767     772.684    -207.559
  H      429.954     771.076    -206.823
  H      430.284     772.550    -205.864
  P      427.899     771.788    -204.746
  C      425.394     771.384    -205.234
  O      426.359     772.154    -204.521
  C      424.009     772.037    -205.226
  O      423.515     772.096    -203.875
  C      424.050     773.485    -205.749
  O      423.920     773.603    -207.145
  C      422.859     774.100    -205.042
  O      421.642     773.921    -205.787
  C      422.785     773.323    -203.712
  N      422.239     777.324    -200.567
  C      421.541     777.023    -201.738
  N      420.618     777.937    -202.110
  N      421.755     775.959    -202.444
  C      422.783     775.201    -201.994
  C      423.546     775.401    -200.865
  C      423.253     776.544    -200.038
  O      423.829     776.842    -198.994
  N      424.519     774.434    -200.749
  C      424.398     773.714    -201.848
  N      423.294     774.083    -202.587
  O      428.653     772.916    -203.888
  O      428.307     770.417    -204.278
  H      421.720     774.423    -206.614
  H      428.915     772.558    -203.016
  H      422.007     778.150    -200.045
  H      425.044     772.883    -202.124
  H      421.744     773.045    -203.468
  H      422.986     775.177    -204.912
  H      420.472     778.827    -201.649
  H      424.953     773.990    -205.408
  H      420.218     777.858    -203.058
  H      423.314     771.416    -205.798
  H      425.347     770.413    -204.742
  H      425.727     771.216    -206.265
  P      425.108     774.187    -208.045
  C      423.527     775.819    -209.394
  O      424.491     774.773    -209.393
  O      425.884     772.876    -208.525
  O      426.014     775.149    -207.354
  H      426.662     772.709    -207.982
  H      423.255     776.052    -210.402
  H      423.942     776.687    -208.927
  H      422.659     775.504    -208.854

 6  7  8  9  10  11  12  13  14  15  26  29  33  34 0
 6-311+G(2d,p)
 ****
 36  38  39  40  41 0
 6-311+G(2d,p)
 ****
 1  2  3  4  5  16  17  18  19  20  21  22  23  24  25 0
 3-21G
 ****
 27  28  30  31  32  35  37  42  43  44  45  46  47 0
 3-21G
 ****
 48  49 0
 3-21G
 ****


