%nproc=1
%NoSave
%Mem=1900MB
#P OB98/GEN NMR

erre ene a

0 1
  C      158.189    -174.555     486.213
  O      158.480    -173.551     487.193
  P      159.810    -173.723     488.070
  C      158.806    -175.008     490.099
  O      159.388    -173.808     489.615
  C      158.849    -175.043     491.630
  O      160.201    -174.991     492.134
  C      158.123    -173.869     492.286
  O      156.718    -174.089     492.371
  C      158.733    -173.881     493.682
  O      158.105    -174.895     494.479
  C      160.189    -174.260     493.390
  N      163.207    -171.099     495.954
  C      162.479    -172.197     496.392
  N      162.570    -172.492     497.705
  N      161.734    -172.925     495.612
  C      161.742    -172.519     494.319
  C      162.416    -171.455     493.757
  C      163.234    -170.645     494.639
  O      163.896    -169.659     494.308
  N      162.181    -171.366     492.419
  C      161.376    -172.376     492.142
  N      161.066    -173.101     493.278
  O      160.499    -172.274     487.966
  O      160.733    -174.804     487.592
  H      158.045    -175.702     493.919
  H      161.461    -172.355     488.062
  H      163.768    -170.578     496.591
  H      160.994    -172.623     491.169
  H      160.617    -174.908     494.160
  H      158.593    -172.930     494.202
  H      163.173    -172.000     498.354
  H      158.356    -172.920     491.770
  H      162.074    -173.309     498.038
  H      158.378    -175.976     491.967
  H      159.339    -175.872     489.697
  H      157.780    -175.089     489.728
  P      155.777    -173.382     491.277
  C      154.470    -172.182     493.169
  O      154.414    -173.022     492.041
  O      155.380    -174.601     490.316
  O      156.427    -172.272     490.526
  H      155.237    -174.267     489.416
  H      153.447    -171.921     493.465
  H      155.030    -171.274     492.965
  H      154.944    -172.720     494.014
  H      157.278    -174.308     485.709
  H      158.084    -175.504     486.695
  H      158.988    -174.602     485.502

 3  4  5  6  7  8  9  10  11  12  23  26  30  31 0
 6-311+G(2d,p)
 ****
 33  35  36  37  38 0
 6-311+G(2d,p)
 ****
 1  2  13  14  15  16  17  18  19  20  21  22  24  25 0
 3-21G
 ****
 27  28  29  32  34  39  40  41  42  43  44  45  46  47  48  49 0
 3-21G
 ****


