%nproc=1
%NoSave
%Mem=1900MB
#P OB98/GEN NMR

erre ene a

0 1
  C     -282.769     -99.859     -57.989
  O     -283.664     -99.642     -56.913
  P     -284.135    -100.939     -56.085
  C     -286.299    -101.255     -57.516
  O     -285.060    -101.792     -57.076
  C     -287.321    -102.381     -57.670
  O     -286.941    -103.261     -58.746
  C     -287.478    -103.258     -56.435
  O     -288.333    -102.642     -55.494
  C     -288.045    -104.539     -57.041
  O     -289.464    -104.416     -57.262
  C     -287.285    -104.624     -58.374
  N     -285.358    -109.183     -59.402
  C     -286.670    -108.746     -59.427
  N     -287.594    -109.645     -59.829
  N     -287.040    -107.537     -59.094
  C     -286.010    -106.752     -58.702
  C     -284.676    -107.074     -58.620
  C     -284.275    -108.396     -59.042
  O     -283.119    -108.800     -59.131
  N     -283.932    -106.019     -58.156
  C     -284.814    -105.055     -57.988
  N     -286.087    -105.439     -58.326
  O     -285.158    -100.335     -55.016
  O     -283.030    -101.722     -55.447
  H     -289.625    -103.695     -57.894
  H     -284.721    -100.206     -54.153
  H     -285.133    -110.118     -59.688
  H     -284.578    -104.058     -57.647
  H     -287.912    -105.030     -59.179
  H     -287.902    -105.402     -56.388
  H     -287.387    -110.599     -60.076
  H     -286.496    -103.468     -55.990
  H     -288.564    -109.344     -59.849
  H     -288.284    -101.923     -57.939
  H     -286.154    -100.762     -58.481
  H     -286.645    -100.514     -56.789
  P     -288.079    -102.964     -53.942
  C     -288.863    -105.404     -53.513
  O     -287.790    -104.533     -53.823
  O     -289.530    -102.790     -53.288
  O     -287.075    -102.075     -53.282
  H     -289.441    -102.408     -52.393
  H     -288.668    -106.374     -53.970
  H     -289.815    -105.017     -53.891
  H     -288.926    -105.523     -52.430
  H     -282.536     -98.924     -58.453
  H     -283.225    -100.509     -58.706
  H     -281.870    -100.308     -57.620

 3  4  5  6  7  8  9  10  11  12  23  26  30  31 0
 6-311+G(2d,p)
 ****
 33  35  36  37  38 0
 6-311+G(2d,p)
 ****
 1  2  13  14  15  16  17  18  19  20  21  22  24  25 0
 3-21G
 ****
 27  28  29  32  34  39  40  41  42  43  44  45  46  47  48  49 0
 3-21G
 ****


