%nproc=1
%NoSave
%Mem=1900MB
#P OB98/GEN NMR

erre ene a

0 1
  C      506.530     165.798    -366.195
  O      505.237     165.557    -366.735
  P      504.321     164.462    -365.999
  C      501.764     164.134    -365.700
  O      502.810     164.960    -366.200
  C      500.522     164.965    -365.385
  O      500.796     165.846    -364.286
  C      500.067     165.866    -366.524
  O      499.305     165.155    -367.491
  C      499.197     166.866    -365.773
  O      497.888     166.306    -365.556
  C      499.944     167.012    -364.436
  N      500.852     171.305    -361.901
  C      499.914     170.311    -361.662
  N      499.127     170.480    -360.580
  N      499.765     169.260    -362.423
  C      500.649     169.209    -363.445
  C      501.619     170.125    -363.785
  C      501.745     171.311    -362.969
  O      502.508     172.249    -363.168
  N      502.333     169.715    -364.886
  C      501.825     168.534    -365.186
  N      500.774     168.198    -364.361
  O      504.594     164.747    -364.445
  O      504.606     163.046    -366.365
  H      497.310     167.041    -365.275
  H      504.430     163.934    -363.923
  H      500.939     172.081    -361.280
  H      502.174     167.897    -365.986
  H      499.246     167.021    -363.590
  H      499.055     167.804    -366.319
  H      499.281     171.202    -359.893
  H      500.917     166.386    -366.987
  H      498.457     169.749    -360.371
  H      499.721     164.278    -365.087
  H      502.104     163.641    -364.778
  H      501.535     163.360    -366.442
  P      498.848     165.978    -368.795
  C      497.938     165.282    -371.129
  O      498.315     164.875    -369.826
  O      500.234     166.462    -369.429
  O      497.922     167.115    -368.505
  H      500.100     167.275    -369.953
  H      498.586     166.079    -371.501
  H      496.902     165.628    -371.121
  H      498.017     164.425    -371.805
  H      507.027     166.544    -366.779
  H      507.099     164.892    -366.215
  H      506.437     166.139    -365.185

 3  4  5  6  7  8  9  10  11  12  23  26  30  31  33  0
 6-311+G(2d,p)
 ****
 35  36  37  38 0
 6-311+G(2d,p)
 ****
 1  2  13  14  15  16  17  18  19  20  21  22  24  25  27  28  29 0
 3-21G
 ****
 32  34  39  40  41  42  43  44  45  46  47  48  49 0
 3-21G
 ****


