%nproc=1
%NoSave
%Mem=1900MB
#P OB98/GEN NMR

erre ene a

0 1
  C      -72.718     481.890     -27.724
  O      -71.821     482.958     -27.522
  H      -73.086     481.930     -28.750
  H      -73.568     481.991     -27.041
  H      -72.233     480.923     -27.563
  P      -70.800     482.886     -26.293
  C      -72.265     483.956     -24.457
  O      -71.128     484.102     -25.297
  C      -72.139     484.791     -23.182
  O      -71.220     484.152     -22.269
  C      -71.585     486.193     -23.453
  O      -72.569     487.157     -23.797
  C      -70.926     486.535     -22.121
  O      -71.860     487.146     -21.215
  C      -70.478     485.170     -21.587
  N      -65.782     485.723     -19.644
  C      -66.968     486.283     -19.212
  N      -66.879     487.121     -18.155
  N      -68.123     486.050     -19.781
  C      -68.038     485.273     -20.883
  C      -66.915     484.680     -21.419
  C      -65.652     484.883     -20.738
  O      -64.579     484.398     -21.074
  N      -67.208     483.995     -22.572
  C      -68.487     484.247     -22.779
  N      -69.051     484.951     -21.739
  O      -69.404     483.338     -26.943
  O      -70.668     481.543     -25.642
  H      -71.381     487.363     -20.391
  H      -68.670     482.887     -26.485
  H      -64.928     485.919     -19.148
  H      -69.061     483.907     -23.636
  H      -70.702     485.065     -20.518
  H      -70.109     487.249     -22.263
  H      -66.009     487.401     -17.735
  H      -70.806     486.163     -24.221
  H      -67.692     487.696     -17.926
  H      -73.114     484.834     -22.682
  H      -72.328     482.895     -24.204
  H      -73.178     484.218     -25.000
  P      -72.570     487.853     -25.237
  C      -70.763     489.710     -24.805
  O      -72.108     489.368     -25.063
  O      -74.127     487.973     -25.577
  O      -71.817     487.121     -26.302
  H      -74.407     487.248     -26.167
  H      -70.675     490.773     -24.724
  H      -70.146     489.360     -25.606
  H      -70.449     489.256     -23.889

 6  7  8  9  10  11  12  13  14  15  26  29  33  34 0
 6-311+G(2d,p)
 ****
 36  38  39  40  41 0
 6-311+G(2d,p)
 ****
 1  2  3  4  5  16  17  18  19  20  21  22  23  24  25 0
 3-21G
 ****
 27  28  30  31  32  35  37  42  43  44  45  46  47 0
 3-21G
 ****
 48  49 0
 3-21G
 ****


