%nproc=1
%NoSave
%Mem=1900MB
#P OB98/GEN NMR

erre ene a

0 1
  C     -136.870     503.239      32.945
  O     -137.492     504.531      32.894
  P     -137.366     505.433      34.222
  C     -139.798     506.355      34.398
  O     -138.438     506.637      34.103
  C     -140.689     507.484      33.880
  O     -141.158     507.232      32.531
  C     -141.953     507.688      34.709
  O     -141.660     508.337      35.938
  C     -142.806     508.512      33.731
  O     -142.391     509.893      33.763
  C     -142.444     507.877      32.382
  N     -147.337     507.185      31.090
  C     -146.676     508.279      31.501
  N     -145.369     508.386      31.826
  C     -144.739     507.191      31.681
  C     -145.291     506.000      31.253
  C     -146.666     506.017      30.958
  N     -147.356     504.895      30.527
  N     -144.342     505.005      31.221
  C     -143.234     505.582      31.649
  N     -143.424     506.917      31.920
  O     -135.957     506.165      34.038
  O     -137.439     504.649      35.490
  H     -142.545     510.223      34.675
  H     -135.312     505.792      34.664
  H     -147.265     509.192      31.598
  H     -142.280     505.086      31.764
  H     -142.339     508.632      31.597
  H     -143.878     508.480      33.982
  H     -142.440     506.725      34.905
  H     -140.097     508.418      33.867
  H     -139.942     506.240      35.475
  H     -148.359     504.979      30.409
  H     -146.885     504.006      30.516
  H     -140.062     505.403      33.927
  P     -142.137     507.626      37.298
  C     -143.868     509.446      37.825
  O     -142.643     508.852      38.215
  O     -140.737     507.242      37.965
  O     -143.103     506.494      37.112
  H     -140.089     507.983      37.918
  H     -144.106     510.239      38.544
  H     -144.676     508.708      37.833
  H     -143.773     509.886      36.830
  H     -137.018     502.735      32.013
  H     -137.306     502.664      33.735
  H     -135.822     503.355      33.125

 3  4  5  6  7  8  9  10  11  12  22  25  29  30  31  32 0
 6-311+G(2d,p)
 ****
 33  36  37 0
 6-311+G(2d,p)
 ****
 1  2  13  14  15  16  17  18  19  20  21  23  24  26 0
 3-21G
 ****
 27  28  34  35  38  39  40  41  42  43  44  45  46  47  48 0
 3-21G
 ****


