%nproc=1
%NoSave
%Mem=1900MB
#P OB98/GEN NMR

erre ene a

0 1
  C     -234.585    -135.898    -479.551
  O     -235.647    -136.843    -479.400
  P     -235.289    -138.306    -478.852
  C     -236.418    -139.691    -480.720
  O     -236.436    -139.333    -479.341
  C     -237.686    -140.484    -481.083
  O     -238.817    -139.563    -481.089
  C     -237.676    -141.124    -482.478
  O     -237.146    -142.446    -482.610
  C     -239.163    -141.224    -482.776
  O     -239.708    -142.405    -482.168
  C     -239.749    -139.985    -482.106
  N     -242.836    -138.227    -485.809
  C     -242.872    -139.349    -485.053
  N     -242.009    -139.744    -484.092
  C     -241.040    -138.836    -483.921
  C     -240.879    -137.639    -484.604
  C     -241.825    -137.342    -485.596
  N     -241.786    -136.199    -486.362
  N     -239.753    -136.964    -484.153
  C     -239.239    -137.757    -483.235
  N     -239.987    -138.884    -483.036
  O     -234.931    -138.391    -477.406
  O     -234.045    -138.725    -479.777
  H     -240.686    -142.307    -482.191
  H     -233.409    -139.235    -479.233
  H     -243.699    -140.024    -485.262
  H     -238.332    -137.548    -482.676
  H     -240.708    -140.183    -481.609
  H     -239.372    -141.304    -483.855
  H     -237.187    -140.461    -483.212
  H     -237.874    -141.243    -480.323
  H     -235.535    -140.308    -480.924
  H     -242.485    -136.082    -487.080
  H     -241.013    -135.562    -486.260
  H     -236.309    -138.777    -481.303
  P     -236.028    -142.793    -483.702
  C     -237.323    -144.789    -484.773
  O     -236.219    -144.355    -484.038
  O     -234.641    -142.396    -483.342
  O     -236.599    -142.081    -485.020
  H     -237.413    -142.482    -485.370
  H     -237.166    -145.835    -485.076
  H     -237.455    -144.189    -485.685
  H     -238.228    -144.743    -484.151
  H     -234.979    -134.975    -479.923
  H     -233.862    -136.281    -480.241
  H     -234.119    -135.730    -478.602

 3  4  5  6  7  8  9  10  11  12  22  25  29  30  31  32 0
 6-311+G(2d,p)
 ****
 33  36  37 0
 6-311+G(2d,p)
 ****
 1  2  13  14  15  16  17  18  19  20  21  23  24  26 0
 3-21G
 ****
 27  28  34  35  38  39  40  41  42  43  44  45  46  47  48 0
 3-21G
 ****


