%nproc=1
%NoSave
%Mem=1900MB
#P OB98/GEN NMR

erre ene a

0 1
  C      871.465      42.611     192.633
  O      870.392      42.883     193.512
  H      871.149      41.851     191.914
  H      872.322      42.231     193.195
  H      871.753      43.517     192.085
  P      870.549      44.133     194.502
  C      869.718      46.577     194.207
  O      869.423      45.198     194.078
  C      868.497      47.322     194.756
  O      867.441      47.279     193.752
  C      867.929      46.725     196.051
  O      867.460      47.798     196.874
  C      866.745      45.911     195.562
  O      865.755      45.685     196.557
  C      866.251      46.788     194.405
  N      865.405      46.052     193.469
  C      864.122      46.546     193.240
  O      863.683      47.595     193.708
  N      863.323      45.775     192.434
  C      863.668      44.579     191.871
  O      862.898      43.923     191.175
  C      865.031      44.105     192.154
  C      865.819      44.852     192.925
  O      871.911      44.816     194.009
  O      870.573      43.797     195.961
  H      872.672      44.437     194.483
  H      865.050      45.144     196.150
  H      862.393      46.114     192.262
  H      865.336      43.153     191.727
  H      866.827      44.520     193.174
  H      865.706      47.659     194.795
  H      867.087      44.935     195.194
  H      868.643      46.118     196.614
  H      868.765      48.379     194.900
  H      869.974      46.991     193.228
  H      870.574      46.704     194.879
  P      868.497      48.444     197.917
  C      870.950      49.179     197.369
  O      869.571      49.220     197.019
  O      869.267      47.140     198.430
  O      867.825      49.248     198.980
  H      869.386      46.465     197.731
  H      871.515      49.749     196.661
  H      871.290      48.164     197.362
  H      871.082      49.592     198.347

 6  7  8  9  10  11  12  13  14  15  16  27  31  32  33  34  35 0
 6-311+G(2d,p)
 ****
 36  37 0
 6-311+G(2d,p)
 ****
 1  2  3  4  5  17  18  19  20  21  22  23  24  25 0
 3-21G
 ****
 26  28  29  30  38  39  40  41  42  43  44  45 0
 3-21G
 ****


