%nproc=1
%NoSave
%Mem=1900MB
#P OB98/GEN NMR

erre ene a

0 1
  C      -54.455    -312.851    -465.357
  O      -55.652    -312.674    -466.097
  P      -57.085    -312.971    -465.439
  C      -58.317    -311.495    -467.166
  O      -58.136    -312.802    -466.637
  C      -59.374    -311.522    -468.266
  O      -60.555    -312.196    -467.786
  C      -59.839    -310.149    -468.729
  O      -58.876    -309.540    -469.578
  C      -61.166    -310.500    -469.389
  O      -60.946    -311.026    -470.707
  C      -61.694    -311.616    -468.463
  N      -62.686    -311.136    -467.507
  C      -63.866    -310.612    -468.043
  O      -64.049    -310.573    -469.258
  N      -64.840    -310.171    -467.181
  C      -64.645    -310.225    -465.900
  N      -65.671    -309.837    -465.094
  C      -63.393    -310.718    -465.295
  C      -62.471    -311.158    -466.146
  O      -57.396    -312.167    -464.221
  O      -57.094    -314.546    -465.191
  H      -61.817    -311.316    -471.043
  H      -56.721    -314.813    -464.314
  H      -63.272    -310.732    -464.220
  H      -61.533    -311.555    -465.783
  H      -62.139    -312.422    -469.057
  H      -61.849    -309.649    -469.479
  H      -60.019    -309.495    -467.867
  H      -58.972    -312.096    -469.113
  H      -66.565    -309.675    -465.544
  H      -57.365    -311.156    -467.590
  H      -65.711    -310.113    -464.121
  H      -58.606    -310.816    -466.359
  P      -58.395    -308.057    -469.210
  C      -56.105    -308.670    -470.259
  O      -57.168    -307.737    -470.196
  O      -57.718    -308.236    -467.773
  O      -59.487    -307.040    -469.199
  H      -58.327    -307.939    -467.071
  H      -55.486    -308.432    -471.128
  H      -56.486    -309.690    -470.367
  H      -55.489    -308.594    -469.358
  H      -53.615    -312.601    -465.972
  H      -54.377    -313.871    -465.044
  H      -54.470    -312.214    -464.497

 3  4  5  6  7  8  9  10  11  12  13  23  27  28  29  30  32 0
 6-311+G(2d,p)
 ****
 34  35 0
 6-311+G(2d,p)
 ****
 1  2  14  15  16  17  18  19  20  21  22  24  25  26 0
 3-21G
 ****
 31  33  36  37  38  39  40  41  42  43  44  45  46 0
 3-21G
 ****


