%nproc=1
%NoSave
%Mem=1900MB
#P OB98/GEN NMR

erre ene a

0 1
  C     -135.954     229.475      21.216
  O     -135.562     230.280      22.311
  H     -136.126     230.117      20.351
  H     -136.881     228.944      21.455
  H     -135.166     228.755      20.975
  P     -135.246     229.512      23.684
  C     -136.978     230.790      25.155
  O     -136.600     229.567      24.544
  C     -138.073     230.548      26.201
  O     -139.241     229.983      25.533
  C     -137.672     229.554      27.304
  O     -138.397     229.899      28.496
  C     -138.202     228.242      26.746
  O     -138.231     227.244      27.739
  C     -139.536     228.729      26.187
  N     -143.482     225.574      25.396
  C     -143.192     226.415      26.413
  N     -142.128     227.231      26.547
  C     -141.322     227.145      25.477
  C     -141.492     226.341      24.358
  C     -142.632     225.521      24.342
  N     -142.928     224.661      23.310
  N     -140.452     226.525      23.466
  C     -139.671     227.422      24.033
  N     -140.152     227.817      25.252
  O     -134.267     230.520      24.450
  O     -134.648     228.153      23.537
  H     -138.839     227.493      28.465
  H     -133.338     230.268      24.287
  H     -143.908     226.427      27.231
  H     -138.749     227.809      23.616
  H     -140.262     228.931      26.983
  H     -137.556     227.870      25.946
  H     -136.600     229.552      27.518
  H     -138.383     231.510      26.626
  H     -137.351     231.467      24.378
  H     -136.108     231.243      25.638
  H     -143.758     224.096      23.383
  H     -142.295     224.600      22.526
  P     -137.655     230.736      29.650
  C     -137.121     228.624      31.100
  O     -136.630     229.764      30.411
  O     -138.819     230.906      30.740
  O     -137.115     232.068      29.242
  H     -138.668     231.722      31.254
  H     -136.303     228.096      31.545
  H     -137.628     227.981      30.411
  H     -137.802     228.935      31.864

 6  7  8  9  10  11  12  13  14  15  25  28  32  33  34  35 0
 6-311+G(2d,p)
 ****
 36  37  40 0
 6-311+G(2d,p)
 ****
 1  2  3  4  5  16  17  18  19  20  21  22  23  24 0
 3-21G
 ****
 26  27  29  30  31  38  39 41  42  43  44  45  46  47  48 0
 3-21G
 ****


