%nproc=1
%NoSave
%Mem=1900MB
#P OB98/GEN NMR

erre ene a

0 1
  C     -134.594     422.938    -256.429
  O     -134.715     423.961    -255.459
  H     -133.851     423.245    -257.174
  H     -135.552     422.786    -256.931
  H     -134.260     422.001    -255.971
  P     -135.530     423.663    -254.111
  C     -133.947     424.911    -252.493
  O     -135.232     424.883    -253.109
  C     -133.654     426.299    -251.912
  O     -133.131     427.148    -252.989
  C     -134.892     427.009    -251.325
  O     -134.438     427.826    -250.237
  C     -135.323     427.867    -252.508
  O     -136.246     428.854    -252.126
  C     -133.952     428.332    -253.005
  N     -133.988     428.932    -254.337
  C     -133.801     430.309    -254.423
  O     -133.588     431.036    -253.452
  N     -133.882     430.841    -255.684
  C     -134.129     430.148    -256.834
  O     -134.168     430.673    -257.939
  C     -134.348     428.700    -256.672
  C     -134.274     428.165    -255.452
  O     -135.340     422.304    -253.524
  O     -137.058     423.913    -254.531
  H     -137.485     423.059    -254.738
  H     -135.900     429.367    -251.360
  H     -133.747     431.840    -255.763
  H     -134.567     428.127    -257.565
  H     -134.426     427.101    -255.296
  H     -133.507     429.047    -252.305
  H     -135.818     427.246    -253.264
  H     -135.656     426.314    -250.969
  H     -132.857     426.209    -251.164
  H     -133.202     424.653    -253.255
  H     -133.915     424.157    -251.696
  P     -134.564     427.395    -248.692
  C     -132.121     427.701    -247.913
  O     -133.457     428.176    -247.826
  O     -134.539     425.912    -248.485
  O     -135.956     428.009    -248.189
  H     -136.367     427.394    -247.551
  H     -131.488     428.302    -247.294
  H     -131.787     427.759    -248.928
  H     -132.082     426.684    -247.582

 6  7  8  9  10  11  12  13  14  15  16  27  31  32  33  34  35 0
 6-311+G(2d,p)
 ****
 36  37 0
 6-311+G(2d,p)
 ****
 1  2  3  4  5  17  18  19  20  21  22  23  24  25 0
 3-21G
 ****
 26  28  29  30  38  39  40  41  42  43  44  45 0
 3-21G
 ****


