%nproc=1
%NoSave
%Mem=1900MB
#P OB98/GEN NMR

erre ene a

0 1
  C       66.405    -165.759     -68.636
  O       67.234    -165.947     -69.766
  H       67.031    -165.498     -67.779
  H       65.869    -166.685     -68.411
  H       65.692    -164.949     -68.815
  P       66.503    -166.250     -71.161
  C       65.814    -168.405     -72.434
  O       66.259    -167.841     -71.207
  C       65.815    -169.932     -72.358
  O       67.195    -170.407     -72.418
  C       65.189    -170.504     -71.072
  O       64.524    -171.726     -71.410
  C       66.405    -170.842     -70.226
  O       66.116    -171.813     -69.222
  C       67.369    -171.318     -71.314
  N       70.363    -172.891     -67.581
  C       69.007    -173.072     -67.786
  N       68.345    -173.784     -66.846
  N       68.356    -172.599     -68.815
  C       69.151    -171.936     -69.688
  C       70.502    -171.682     -69.603
  C       71.205    -172.189     -68.443
  O       72.400    -172.044     -68.200
  N       70.938    -170.948     -70.683
  C       69.851    -170.762     -71.419
  N       68.746    -171.343     -70.855
  O       67.674    -166.015     -72.230
  O       65.303    -165.409     -71.452
  H       66.963    -172.067     -68.796
  H       67.645    -165.101     -72.568
  H       70.812    -173.268     -66.767
  H       69.813    -170.216     -72.353
  H       67.135    -172.332     -71.665
  H       66.788    -169.940     -69.730
  H       68.786    -174.221     -66.053
  H       64.486    -169.824     -70.572
  H       67.357    -173.967     -66.997
  H       65.309    -170.326     -73.250
  H       66.487    -168.085     -73.238
  H       64.803    -168.042     -72.653
  P       62.924    -171.706     -71.537
  C       60.904    -171.592     -69.896
  O       62.304    -171.765     -70.056
  O       62.592    -173.164     -72.115
  O       62.393    -170.625     -72.422
  H       61.765    -173.138     -72.628
  H       60.653    -171.658     -68.858
  H       60.386    -172.356     -70.438
  H       60.618    -170.632     -70.272

 6  7  8  9  10  11  12  13  14  15  26  29  33  34 0
 6-311+G(2d,p)
 ****
 36  38  39  40  41 0
 6-311+G(2d,p)
 ****
 1  2  3  4  5  16  17  18  19  20  21  22  23  24  25 0
 3-21G
 ****
 27  28  30  31  32  35  37  42  43  44  45  46  47 0
 3-21G
 ****
 48  49 0
 3-21G
 ****


