%nproc=1
%NoSave
%Mem=1900MB
#P OB98/GEN NMR

erre ene a

0 1
  C     -254.035    -948.561     392.382
  O     -252.986    -949.150     391.600
  P     -251.971    -948.293     390.699
  C     -249.970    -948.657     392.308
  O     -250.813    -947.722     391.658
  C     -249.121    -947.978     393.389
  O     -249.965    -947.521     394.475
  C     -248.100    -948.879     394.072
  O     -246.987    -949.158     393.237
  C     -247.758    -948.057     395.320
  O     -246.766    -947.068     395.036
  C     -249.106    -947.366     395.630
  N     -249.746    -947.883     396.824
  C     -249.167    -947.510     398.043
  O     -248.124    -946.859     398.076
  N     -249.785    -947.921     399.211
  C     -250.823    -948.693     399.158
  N     -251.384    -949.052     400.337
  C     -251.369    -949.217     397.892
  C     -250.797    -948.772     396.782
  O     -252.624    -947.245     389.870
  O     -251.205    -949.370     389.786
  H     -250.902    -948.938     388.965
  H     -246.535    -946.640     395.887
  H     -252.202    -949.905     397.903
  H     -251.149    -949.094     395.801
  H     -248.963    -946.284     395.731
  H     -247.383    -948.682     396.128
  H     -248.590    -949.820     394.369
  H     -248.625    -947.108     392.940
  H     -250.990    -948.675     401.193
  H     -249.298    -949.096     391.557
  H     -252.201    -949.640     400.412
  H     -250.577    -949.466     392.731
  P     -247.076    -950.472     392.322
  C     -246.867    -949.194     390.070
  O     -247.660    -950.027     390.892
  O     -248.271    -951.310     392.976
  O     -245.817    -951.273     392.264
  H     -248.048    -952.266     392.960
  H     -247.138    -949.385     389.018
  H     -245.803    -949.389     390.193
  H     -247.074    -948.145     390.301
  H     -254.575    -949.331     392.893
  H     -254.701    -948.025     391.739
  H     -253.611    -947.888     393.098

 3  4  5  6  7  8  9  10  11  12  13  24  27  28  29  30  32 0
 6-311+G(2d,p)
 ****
 34  35 0
 6-311+G(2d,p)
 ****
 1  2  14  15  16  17  18  19  20  21  22  23  25  26 0
 3-21G
 ****
 31  33  36  37  38  39  40  41  42  43  44  45  46 0
 3-21G
 ****


