%nproc=1
%NoSave
%Mem=1900MB
#P OB98/GEN NMR

erre ene a

0 1
  C      183.991     730.915    -317.419
  O      185.370     730.948    -317.723
  H      183.846     730.354    -316.498
  H      183.443     730.410    -318.228
  H      183.600     731.930    -317.286
  P      185.817     731.875    -318.956
  C      185.725     734.244    -317.798
  O      185.137     733.307    -318.690
  C      186.382     735.390    -318.560
  O      185.372     736.053    -319.364
  C      187.026     736.446    -317.652
  O      188.203     736.935    -318.294
  C      185.980     737.547    -317.604
  O      186.551     738.817    -317.269
  C      185.378     737.453    -319.012
  N      184.040     738.043    -319.091
  C      183.941     739.412    -318.867
  O      184.955     740.082    -318.604
  N      182.704     740.010    -318.912
  C      181.647     739.282    -319.091
  N      180.447     739.920    -319.092
  C      181.697     737.812    -319.285
  C      182.910     737.274    -319.292
  O      184.963     731.262    -320.154
  O      187.294     731.915    -319.200
  H      186.657     738.853    -316.293
  H      184.036     731.081    -319.918
  H      180.784     737.248    -319.418
  H      183.051     736.207    -319.434
  H      186.028     737.975    -319.746
  H      185.221     737.311    -316.859
  H      187.275     736.058    -316.656
  H      187.121     734.969    -319.255
  H      180.457     740.923    -318.924
  H      186.470     733.743    -317.165
  H      179.552     739.452    -319.170
  H      184.933     734.622    -317.138
  P      189.556     737.133    -317.440
  C      190.629     734.822    -317.897
  O      190.062     735.701    -316.934
  O      189.511     738.214    -316.412
  O      190.634     737.492    -318.580
  H      191.209     738.211    -318.233
  H      190.920     733.910    -317.420
  H      191.488     735.283    -318.339
  H      189.906     734.612    -318.657

 6  7  8  9  10  11  12  13  14  15  16  26  30  31  32  33  35 0
 6-311+G(2d,p)
 ****
 37  38 0
 6-311+G(2d,p)
 ****
 1  2  3  4  5  17  18  19  20  21  22  23  24  25 0
 3-21G
 ****
 27  28  29  34  36  39  40  41  42  43  44  45  46 0
 3-21G
 ****


