%nproc=1
%NoSave
%Mem=1900MB
#P OB98/GEN NMR

erre ene a

0 1
  C      -54.876      98.682     -73.188
  O      -55.782      97.625     -73.438
  H      -54.725      98.802     -72.112
  H      -53.918      98.440     -73.653
  H      -55.252      99.614     -73.620
  P      -57.267      97.802     -72.859
  C      -58.048      99.385     -74.761
  O      -57.780      99.232     -73.376
  C      -59.154     100.414     -74.972
  O      -59.359     100.642     -76.380
  C      -60.516     100.007     -74.420
  O      -60.602     100.221     -73.019
  C      -61.426     100.955     -75.186
  O      -61.390     102.260     -74.578
  C      -60.754     100.998     -76.566
  N      -64.806     100.127     -79.564
  C      -64.474     101.173     -78.778
  N      -63.368     101.342     -78.026
  C      -62.544     100.290     -78.153
  C      -62.734      99.161     -78.931
  C      -63.933      99.093     -79.660
  N      -64.292      97.984     -80.409
  N      -61.674      98.286     -78.792
  C      -60.869      98.871     -77.930
  N      -61.349     100.085     -77.521
  O      -57.012      98.030     -71.292
  O      -58.188      96.656     -73.109
  H      -61.966     102.835     -75.116
  H      -57.131      97.184     -70.823
  H      -65.196     101.983     -78.746
  H      -59.938      98.454     -77.572
  H      -60.775     102.001     -77.005
  H      -62.471     100.632     -75.197
  H      -60.767      98.975     -74.688
  H      -58.821     101.361     -74.528
  H      -58.364      98.424     -75.179
  H      -65.297      97.852     -80.480
  H      -63.735      97.158     -80.226
  H      -57.130      99.706     -75.262
  P      -61.867      99.606     -72.248
  C      -60.561      97.377     -72.120
  O      -61.790      98.014     -72.443
  O      -63.097     100.044     -73.173
  O      -62.050     100.078     -70.847
  H      -63.746     100.544     -72.644
  H      -60.648      96.325     -72.295
  H      -60.330      97.549     -71.090
  H      -59.780      97.777     -72.732

 6  7  8  9  10  11  12  13  14  15  25  28  32  33  34  35 0
 6-311+G(2d,p)
 ****
 36  39  40 0
 6-311+G(2d,p)
 ****
 1  2  3  4  5  16  17  18  19  20  21  22  23  24 0
 3-21G
 ****
 26  27  29  30  31  37  38  41  42  43  44  45  46  47  48 0
 3-21G
 ****


