%nproc=1
%NoSave
%Mem=1900MB
#P OB98/GEN NMR

erre ene a

0 1
  C     -825.650     -42.082    -669.991
  O     -824.967     -41.512    -668.891
  H     -826.252     -42.936    -669.666
  H     -826.313     -41.327    -670.422
  H     -824.931     -42.402    -670.754
  P     -824.017     -42.495    -668.057
  C     -821.820     -41.971    -669.333
  O     -822.829     -42.928    -669.046
  C     -821.373     -42.090    -670.787
  O     -822.435     -41.642    -671.670
  C     -820.157     -41.254    -671.150
  O     -818.947     -41.860    -670.731
  C     -820.276     -41.236    -672.680
  O     -819.754     -42.464    -673.207
  C     -821.802     -41.168    -672.885
  N     -823.722     -38.072    -676.516
  C     -823.316     -39.370    -676.551
  N     -822.809     -40.120    -675.552
  C     -822.745     -39.416    -674.409
  C     -823.102     -38.088    -674.220
  C     -823.603     -37.408    -675.332
  N     -823.995     -36.082    -675.295
  N     -822.904     -37.707    -672.915
  C     -822.419     -38.786    -672.313
  N     -822.294     -39.843    -673.181
  O     -824.890     -43.832    -667.919
  O     -823.586     -41.985    -666.722
  H     -819.849     -42.413    -674.176
  H     -824.714     -44.238    -667.042
  H     -823.437     -39.874    -677.505
  H     -822.161     -38.840    -671.268
  H     -822.122     -41.844    -673.693
  H     -819.729     -40.413    -673.134
  H     -820.248     -40.230    -670.773
  H     -821.196     -43.154    -670.999
  H     -820.957     -42.143    -668.679
  H     -824.531     -35.713    -676.073
  H     -823.918     -35.597    -674.413
  H     -822.221     -40.974    -669.133
  P     -817.733     -40.885    -670.329
  C     -816.450     -42.723    -669.007
  O     -817.144     -41.477    -668.949
  O     -818.479     -39.545    -669.856
  O     -816.747     -40.618    -671.411
  H     -817.898     -38.779    -669.958
  H     -816.117     -42.992    -668.026
  H     -815.605     -42.631    -669.657
  H     -817.107     -43.480    -669.381

 6  7  8  9  10  11  12  13  14  15  25  28  32  33  34  35 0
 6-311+G(2d,p)
 ****
 36  39  40 0
 6-311+G(2d,p)
 ****
 1  2  3  4  5  16  17  18  19  20  21  22  23  24 0
 3-21G
 ****
 26  27  29  30  31  37  38  41  42  43  44  45  46  47  48 0
 3-21G
 ****


