%nproc=1
%NoSave
%Mem=1900MB
#P OB98/GEN NMR

erre ene a

0 1
  C      -77.425     168.168     -78.730
  O      -76.848     168.759     -77.577
  P      -76.582     170.340     -77.599
  C      -74.109     170.110     -78.326
  O      -75.406     170.589     -78.663
  C      -73.047     171.163     -78.624
  O      -73.064     171.457     -80.049
  C      -73.246     172.490     -77.875
  O      -71.979     172.946     -77.377
  C      -73.682     173.453     -78.968
  O      -73.370     174.804     -78.646
  C      -72.913     172.887     -80.161
  N      -73.986     176.978     -82.921
  C      -73.301     176.875     -81.728
  N      -72.895     178.036     -81.162
  N      -73.039     175.740     -81.134
  C      -73.477     174.660     -81.829
  C      -74.157     174.633     -83.023
  C      -74.494     175.901     -83.636
  O      -75.174     176.062     -84.647
  N      -74.417     173.345     -83.422
  C      -73.900     172.596     -82.468
  N      -73.360     173.347     -81.455
  O      -75.881     170.605     -76.185
  O      -77.797     171.188     -77.768
  H      -73.285     175.286     -79.491
  H      -76.383     171.280     -75.690
  H      -74.177     177.878     -83.325
  H      -73.919     171.513     -82.452
  H      -71.844     173.124     -80.073
  H      -74.766     173.367     -79.109
  H      -73.030     178.940     -81.582
  H      -73.970     172.441     -77.056
  H      -72.371     177.978     -80.298
  H      -72.061     170.735     -78.400
  H      -73.897     169.208     -78.910
  H      -74.096     169.853     -77.262
  P      -72.006     173.659     -75.940
  C      -71.633     176.130     -76.679
  O      -72.532     175.149     -76.202
  O      -70.455     173.857     -75.595
  O      -72.730     172.882     -74.889
  H      -70.324     173.918     -74.630
  H      -70.672     175.699     -76.973
  H      -71.460     176.867     -75.891
  H      -72.077     176.628     -77.544
  H      -77.543     167.116     -78.571
  H      -76.786     168.332     -79.573
  H      -78.382     168.610     -78.916

 3  4  5  6  7  8  9  10  11  12  23  26  30  31  33  0
 6-311+G(2d,p)
 ****
 35  36  37  38 0
 6-311+G(2d,p)
 ****
 1  2  13  14  15  16  17  18  19  20  21  22  24  25  27  28  29 0
 3-21G
 ****
 32  34  39  40  41  42  43  44  45  46  47  48  49 0
 3-21G
 ****


