%nproc=1
%NoSave
%Mem=1900MB
#P OB98/GEN NMR

erre ene a

0 1
  C     -269.928    -508.297     164.980
  O     -269.325    -507.059     165.315
  H     -269.766    -508.998     165.807
  H     -269.472    -508.703     164.074
  H     -271.005    -508.166     164.837
  P     -269.446    -505.884     164.234
  C     -267.085    -505.798     163.146
  O     -268.425    -506.260     163.038
  C     -266.329    -506.045     161.844
  O     -266.831    -505.125     160.826
  C     -264.817    -505.826     161.936
  O     -264.148    -506.806     161.136
  C     -264.608    -504.457     161.318
  O     -263.290    -504.263     160.843
  C     -265.684    -504.487     160.230
  N     -265.264    -501.380     156.282
  C     -264.877    -502.702     156.432
  N     -264.283    -503.283     155.377
  N     -265.059    -503.397     157.535
  C     -265.691    -502.691     158.509
  C     -266.110    -501.380     158.487
  C     -265.893    -500.614     157.271
  O     -266.199    -499.449     157.081
  N     -266.681    -501.022     159.691
  C     -266.602    -502.114     160.445
  N     -265.998    -503.151     159.755
  O     -268.719    -504.647     164.953
  O     -270.829    -505.552     163.790
  H     -263.252    -503.392     160.395
  H     -269.107    -503.798     164.659
  H     -265.086    -500.906     155.418
  H     -266.942    -502.218     161.456
  H     -265.379    -505.062     159.351
  H     -264.832    -503.676     162.058
  H     -264.134    -502.834     154.477
  H     -264.441    -505.885     162.970
  H     -263.992    -504.263     155.463
  H     -266.564    -507.057     161.488
  H     -266.587    -506.330     163.963
  H     -267.084    -504.723     163.373
  P     -263.602    -508.121     161.867
  C     -261.124    -507.501     162.363
  O     -262.421    -507.695     162.884
  O     -262.812    -508.891     160.683
  O     -264.669    -508.990     162.447
  H     -263.309    -509.669     160.406
  H     -260.459    -507.225     163.155
  H     -261.147    -506.723     161.629
  H     -260.782    -508.408     161.911

 6  7  8  9  10  11  12  13  14  15  26  29  33  34 0
 6-311+G(2d,p)
 ****
 36  38  39  40  41 0
 6-311+G(2d,p)
 ****
 1  2  3  4  5  16  17  18  19  20  21  22  23  24  25 0
 3-21G
 ****
 27  28  30  31  32  35  37  42  43  44  45  46  47 0
 3-21G
 ****
 48  49 0
 3-21G
 ****


