%nproc=1
%NoSave
%Mem=1900MB
#P OB98/GEN NMR

erre ene a

0 1
  C     -949.720     187.167     538.021
  O     -949.405     188.182     538.986
  P     -948.597     187.747     540.297
  C     -946.573     189.390     540.324
  O     -947.046     188.077     540.047
  C     -945.892     189.981     539.087
  O     -946.796     190.047     537.957
  C     -945.383     191.402     539.289
  O     -944.114     191.411     539.930
  C     -945.240     191.867     537.851
  O     -944.018     191.358     537.286
  C     -946.452     191.214     537.180
  N     -948.476     195.147     534.720
  C     -947.278     194.494     534.520
  N     -946.503     194.950     533.508
  N     -946.870     193.482     535.246
  C     -947.754     193.124     536.203
  C     -948.966     193.694     536.507
  C     -949.400     194.819     535.705
  O     -950.441     195.449     535.851
  N     -949.571     193.060     537.554
  C     -948.732     192.091     537.880
  N     -947.602     192.103     537.102
  O     -948.635     186.152     540.220
  O     -949.173     188.261     541.576
  H     -944.005     190.398     537.467
  H     -948.574     185.781     541.125
  H     -948.738     195.919     534.140
  H     -948.899     191.366     538.667
  H     -946.241     190.882     536.158
  H     -945.192     192.959     537.769
  H     -946.780     195.688     532.879
  H     -946.118     192.013     539.819
  H     -945.638     194.463     533.325
  H     -945.048     189.327     538.820
  H     -945.874     189.373     541.161
  H     -947.417     190.009     540.652
  P     -944.077     191.563     541.524
  C     -942.885     189.299     541.996
  O     -944.065     190.071     542.104
  O     -945.545     192.098     541.863
  O     -943.021     192.474     542.045
  H     -945.515     192.677     542.650
  H     -943.002     188.393     542.583
  H     -942.023     189.854     542.378
  H     -942.714     189.027     540.948
  H     -950.257     187.604     537.206
  H     -950.323     186.412     538.481
  H     -948.815     186.728     537.657

 3  4  5  6  7  8  9  10  11  12  23  26  30  31 0
 6-311+G(2d,p)
 ****
 33  35  36  37  38 0
 6-311+G(2d,p)
 ****
 1  2  13  14  15  16  17  18  19  20  21  22  24  25 0
 3-21G
 ****
 27  28  29  32  34  39  40  41  42  43  44  45  46  47  48  49 0
 3-21G
 ****


