%nproc=1
%NoSave
%Mem=1900MB
#P OB98/GEN NMR

erre ene a

0 1
  C       -9.065    -106.929      32.605
  O       -8.623    -107.158      31.266
  P       -7.055    -107.282      30.969
  C       -6.602    -104.754      30.739
  O       -6.322    -105.942      31.463
  C       -5.555    -103.668      31.033
  O       -5.645    -102.616      30.035
  C       -5.733    -103.024      32.415
  O       -4.529    -103.002      33.182
  C       -6.342    -101.670      32.099
  O       -6.118    -100.708      33.119
  C       -5.766    -101.353      30.714
  N       -6.603    -100.404      29.975
  C       -6.315     -99.056      30.142
  O       -5.459     -98.642      30.924
  N       -7.087     -98.182      29.424
  C       -8.149     -98.517      28.636
  O       -8.840     -97.694      28.051
  C       -8.448     -99.955      28.547
  C       -7.673    -100.817      29.210
  O       -6.687    -107.733      29.595
  O       -6.570    -108.356      32.062
  H       -5.155    -100.680      33.312
  H       -5.901    -108.931      31.643
  H       -6.879     -97.200      29.521
  H       -9.296    -100.256      27.949
  H       -7.878    -101.879      29.173
  H       -4.768    -100.910      30.797
  H       -7.429    -101.794      32.007
  H       -6.429    -103.598      33.036
  H       -4.569    -104.137      30.955
  H       -7.587    -104.380      31.020
  H       -6.657    -104.985      29.669
  P       -4.107    -104.127      34.238
  C       -4.318    -102.780      36.442
  O       -4.836    -103.813      35.626
  O       -2.645    -104.403      34.343
  O       -4.875    -105.429      33.703
  H       -4.293    -106.206      33.796
  H       -4.668    -102.935      37.465
  H       -4.690    -101.815      36.085
  H       -3.226    -102.778      36.437
  H      -10.133    -106.873      32.623
  H       -8.653    -106.009      32.964
  H       -8.739    -107.734      33.231

 3  4  5  6  7  8  9  10  11  12  13  23  28  29  30  31  32 0
 6-311+G(2d,p)
 ****
 33  34 0
 6-311+G(2d,p)
 ****
 1  2  14  15  16  17  18  19  20  21  22  24  25  26  27 0
 3-21G
 ****
 35  36  37  38  39  40  41  42  43  44  45 0
 3-21G
 ****


