%nproc=1
%NoSave
%Mem=1900MB
#P OB98/GEN NMR

erre ene a

0 1
  C       74.571     102.655    -725.234
  O       74.489     102.510    -726.639
  P       75.803     102.605    -727.546
  C       74.861     104.151    -729.360
  O       75.784     104.033    -728.286
  C       74.214     105.535    -729.384
  O       73.214     105.570    -730.440
  C       73.509     105.943    -728.074
  O       73.677     107.359    -727.935
  C       72.054     105.628    -728.359
  O       71.159     106.328    -727.515
  C       71.980     106.020    -729.826
  N       67.156     106.697    -731.387
  C       67.989     107.484    -730.674
  N       69.251     107.226    -730.282
  C       69.637     106.003    -730.694
  C       68.878     105.077    -731.400
  C       67.580     105.474    -731.767
  N       66.726     104.701    -732.521
  N       69.603     103.905    -731.590
  C       70.770     104.143    -731.012
  N       70.850     105.406    -730.512
  O       76.036     101.433    -728.447
  O       76.992     102.751    -726.482
  H       71.523     106.340    -726.615
  H       77.488     101.916    -726.420
  H       67.596     108.465    -730.384
  H       71.579     103.423    -730.925
  H       71.911     107.101    -729.971
  H       71.873     104.558    -728.225
  H       73.904     105.423    -727.191
  H       74.983     106.268    -729.643
  H       74.082     103.395    -729.222
  H       65.868     105.136    -732.840
  H       67.107     103.917    -733.041
  H       75.369     103.961    -730.311
  P       73.992     107.992    -726.499
  C       71.767     109.263    -726.455
  O       72.572     108.287    -725.808
  O       74.957     109.133    -726.492
  O       74.544     106.748    -725.651
  H       75.023     107.074    -724.856
  H       72.113     110.270    -726.160
  H       70.731     109.135    -726.140
  H       71.827     109.171    -727.544
  H       73.594     102.561    -724.808
  H       74.972     103.619    -724.998
  H       75.209     101.895    -724.834

 3  4  5  6  7  8  9  10  11  12  22  25  29  30  31  32 0
 6-311+G(2d,p)
 ****
 33  36  37 0
 6-311+G(2d,p)
 ****
 1  2  13  14  15  16  17  18  19  20  21  23  24  26 0
 3-21G
 ****
 27  28  34  35  38  39  40  41  42  43  44  45  46  47  48 0
 3-21G
 ****


