%nproc=1
%NoSave
%Mem=1900MB
#P OB98/GEN NMR

erre ene a

0 1
  C     -164.351    -396.382     324.570
  O     -163.997    -396.798     323.256
  P     -162.894    -397.946     323.086
  C     -163.557    -398.875     320.694
  O     -162.627    -398.223     321.535
  C     -163.030    -398.841     319.246
  O     -163.017    -397.486     318.746
  C     -161.614    -399.395     319.105
  O     -161.608    -400.799     318.940
  C     -161.109    -398.637     317.894
  O     -161.635    -399.220     316.684
  C     -161.720    -397.237     318.134
  N     -160.969    -396.287     318.975
  C     -159.640    -395.994     318.686
  O     -159.013    -396.483     317.747
  N     -159.019    -395.084     319.507
  C     -159.623    -394.327     320.469
  O     -159.038    -393.488     321.134
  C     -161.067    -394.559     320.636
  C     -161.656    -395.520     319.915
  O     -163.634    -399.270     323.586
  O     -161.627    -397.695     323.843
  H     -161.447    -400.174     316.721
  H     -163.212    -399.615     324.392
  H     -158.037    -394.916     319.356
  H     -161.596    -393.952     321.360
  H     -162.723    -395.698     320.033
  H     -161.903    -396.726     317.176
  H     -160.026    -398.700     317.811
  H     -161.014    -399.096     319.962
  H     -163.728    -399.424     318.619
  H     -164.532    -398.385     320.752
  H     -163.690    -399.904     321.029
  P     -160.901    -401.724     320.041
  C     -163.099    -403.032     320.286
  O     -161.712    -403.111     320.024
  O     -160.710    -401.106     321.391
  O     -159.508    -402.128     319.361
  H     -158.788    -401.525     319.663
  H     -163.551    -404.004     320.085
  H     -163.563    -402.284     319.635
  H     -163.267    -402.773     321.333
  H     -165.095    -395.615     324.513
  H     -163.484    -396.002     325.070
  H     -164.740    -397.216     325.115

 3  4  5  6  7  8  9  10  11  12  13  23  28  29  30  31  32 0
 6-311+G(2d,p)
 ****
 33  34 0
 6-311+G(2d,p)
 ****
 1  2  14  15  16  17  18  19  20  21  22  24  25  26  27 0
 3-21G
 ****
 35  36  37  38  39  40  41  42  43  44  45 0
 3-21G
 ****


