%nproc=1
%NoSave
%Mem=1900MB
#P OB98/GEN NMR

erre ene a

0 1
  C      133.579      65.136     -65.185
  O      134.373      65.811     -64.230
  H      134.235      64.539     -65.825
  H      133.044      65.859     -65.808
  H      132.865      64.467     -64.695
  P      133.650      66.685     -63.095
  C      134.154      68.923     -64.258
  O      133.142      68.034     -63.805
  C      133.642      70.365     -64.255
  O      132.634      70.499     -65.289
  C      133.013      70.796     -62.925
  O      133.355      72.158     -62.677
  C      131.520      70.682     -63.188
  O      130.757      71.560     -62.357
  C      131.442      71.026     -64.677
  N      126.482      71.687     -65.404
  C      127.410      72.506     -64.793
  N      126.950      73.670     -64.272
  N      128.680      72.214     -64.695
  C      129.006      71.031     -65.268
  C      128.182      70.126     -65.896
  C      126.769      70.456     -65.991
  O      125.899      69.763     -66.507
  N      128.883      69.028     -66.326
  C      130.124      69.261     -65.950
  N      130.253      70.457     -65.296
  O      134.445      66.904     -61.847
  O      132.293      65.890     -62.803
  H      129.810      71.384     -62.546
  H      132.375      65.355     -61.993
  H      125.513      71.957     -65.439
  H      130.967      68.595     -66.119
  H      131.405      72.111     -64.852
  H      131.188      69.656     -63.001
  H      125.987      73.967     -64.329
  H      133.331      70.169     -62.082
  H      127.616      74.295     -63.845
  H      134.469      71.028     -64.529
  H      134.438      68.632     -65.274
  H      135.032      68.836     -63.605
  P      134.492      72.486     -61.593
  C      134.105      74.978     -61.050
  O      133.938      73.633     -60.613
  O      135.858      72.723     -62.142
  O      134.464      71.178     -60.655
  H      135.362      71.038     -60.289
  H      133.699      75.644     -60.317
  H      133.594      75.117     -61.980
  H      135.147      75.184     -61.181

 6  7  8  9  10  11  12  13  14  15  26  29  33  34 0
 6-311+G(2d,p)
 ****
 36  38  39  40  41 0
 6-311+G(2d,p)
 ****
 1  2  3  4  5  16  17  18  19  20  21  22  23  24  25 0
 3-21G
 ****
 27  28  30  31  32  35  37  42  43  44  45  46  47 0
 3-21G
 ****
 48  49 0
 3-21G
 ****


