%nproc=1
%NoSave
%Mem=1900MB
#P OB98/GEN NMR

erre ene a

0 1
  C      134.504     469.007     -64.537
  O      134.951     468.707     -65.842
  H      133.427     468.821     -64.488
  H      134.689     470.058     -64.301
  H      135.002     468.369     -63.798
  P      136.523     468.765     -66.154
  C      136.537     471.174     -67.067
  O      136.966     470.301     -66.032
  C      137.693     471.461     -68.022
  O      137.252     472.298     -69.117
  C      138.856     472.205     -67.374
  O      139.626     471.333     -66.565
  C      139.572     472.732     -68.609
  O      140.372     471.710     -69.225
  C      138.378     473.108     -69.520
  N      138.052     474.539     -69.466
  C      138.715     475.355     -70.379
  O      139.533     474.929     -71.189
  N      138.432     476.695     -70.294
  C      137.641     477.285     -69.348
  O      137.593     478.499     -69.170
  C      136.913     476.372     -68.462
  C      137.158     475.061     -68.548
  O      136.963     468.076     -67.404
  O      137.189     468.100     -64.853
  H      137.436     467.176     -65.058
  H      140.937     472.157     -69.882
  H      138.944     477.298     -70.918
  H      136.225     476.795     -67.740
  H      136.653     474.365     -67.880
  H      138.596     472.848     -70.563
  H      140.238     473.566     -68.379
  H      138.484     473.054     -66.791
  H      138.031     470.503     -68.446
  H      136.199     472.116     -66.612
  H      135.697     470.716     -67.601
  P      139.890     471.661     -65.020
  C      142.173     472.792     -65.332
  O      140.818     472.969     -64.946
  O      140.384     470.507     -64.206
  O      138.481     472.184     -64.473
  H      138.232     471.674     -63.681
  H      142.693     473.723     -65.244
  H      142.214     472.455     -66.347
  H      142.633     472.065     -64.696

 6  7  8  9  10  11  12  13  14  15  16  27  31  32  33  34  35 0
 6-311+G(2d,p)
 ****
 36  37 0
 6-311+G(2d,p)
 ****
 1  2  3  4  5  17  18  19  20  21  22  23  24  25 0
 3-21G
 ****
 26  28  29  30  38  39  40  41  42  43  44  45 0
 3-21G
 ****


