%nproc=1
%NoSave
%Mem=1900MB
#P OB98/GEN NMR

erre ene a

0 1
  C      148.776      65.948     481.732
  O      149.382      64.712     482.067
  H      148.850      66.093     480.649
  H      149.296      66.770     482.235
  H      147.723      65.940     482.021
  P      149.431      64.345     483.627
  C      147.764      62.371     483.777
  O      147.987      63.753     483.998
  C      146.315      62.005     484.092
  O      146.010      62.291     485.476
  C      145.281      62.744     483.256
  O      145.092      62.105     482.004
  C      144.054      62.653     484.152
  O      143.418      61.365     484.034
  C      144.664      62.829     485.550
  N      143.687      65.844     489.488
  C      143.452      64.493     489.319
  N      142.833      63.854     490.333
  N      143.768      63.825     488.235
  C      144.328      64.606     487.277
  C      144.620      65.950     487.328
  C      144.307      66.658     488.550
  O      144.571      67.839     488.794
  N      145.202      66.378     486.159
  C      145.236      65.302     485.397
  N      144.712      64.201     486.033
  O      149.441      65.780     484.347
  O      150.601      63.523     484.056
  H      142.894      61.192     484.831
  H      150.025      65.734     485.127
  H      143.452      66.295     490.354
  H      145.632      65.262     484.391
  H      144.124      62.253     486.308
  H      143.300      63.394     483.876
  H      142.309      64.349     491.040
  H      145.558      63.797     483.127
  H      142.589      62.882     490.176
  H      146.213      60.921     483.959
  H      148.433      61.793     484.421
  H      147.981      62.132     482.728
  P      145.652      62.834     480.690
  C      147.346      60.948     480.128
  O      147.152      62.326     480.438
  O      145.847      64.346     481.180
  O      144.742      62.766     479.510
  H      145.141      64.907     480.812
  H      148.389      60.758     479.987
  H      146.815      60.706     479.231
  H      146.979      60.346     480.933

 6  7  8  9  10  11  12  13  14  15  26  29  33  34 0
 6-311+G(2d,p)
 ****
 36  38  39  40  41 0
 6-311+G(2d,p)
 ****
 1  2  3  4  5  16  17  18  19  20  21  22  23  24  25 0
 3-21G
 ****
 27  28  30  31  32  35  37  42  43  44  45  46  47 0
 3-21G
 ****
 48  49 0
 3-21G
 ****


