%nproc=1
%NoSave
%Mem=1900MB
#P OB98/GEN NMR

erre ene a

0 1
  C     -207.621     310.864     372.243
  O     -207.725     309.759     373.141
  P     -208.942     308.736     372.949
  C     -208.960     307.887     375.464
  O     -208.881     307.602     374.078
  C     -208.058     306.900     376.231
  O     -206.666     307.260     376.072
  C     -208.354     306.860     377.730
  O     -209.395     305.960     378.045
  C     -207.005     306.461     378.307
  O     -206.794     305.051     378.137
  C     -206.043     307.263     377.389
  N     -205.733     308.662     377.762
  C     -204.605     308.936     378.539
  O     -203.831     308.091     378.959
  N     -204.388     310.265     378.830
  C     -205.057     311.316     378.295
  O     -204.772     312.495     378.547
  C     -206.137     310.989     377.362
  C     -206.426     309.691     377.156
  O     -208.572     307.952     371.607
  O     -210.291     309.379     372.866
  H     -205.885     304.857     378.449
  H     -209.233     308.142     370.912
  H     -203.622     310.474     379.453
  H     -206.664     311.800     376.876
  H     -207.229     309.433     376.472
  H     -205.082     306.743     377.300
  H     -206.958     306.649     379.373
  H     -208.584     307.873     378.093
  H     -208.200     305.897     375.801
  H     -209.990     307.818     375.818
  H     -208.624     308.920     375.642
  P     -210.550     306.403     379.056
  C     -210.775     304.049     380.066
  O     -211.423     305.074     379.332
  O     -211.338     307.617     378.676
  O     -209.785     306.602     380.456
  H     -209.546     307.547     380.595
  H     -211.520     303.284     380.312
  H     -210.359     304.447     380.998
  H     -209.989     303.599     379.460
  H     -206.764     311.451     372.498
  H     -208.502     311.467     372.317
  H     -207.520     310.501     371.241

 3  4  5  6  7  8  9  10  11  12  13  23  28  29  30  31  32 0
 6-311+G(2d,p)
 ****
 33  34 0
 6-311+G(2d,p)
 ****
 1  2  14  15  16  17  18  19  20  21  22  24  25  26  27 0
 3-21G
 ****
 35  36  37  38  39  40  41  42  43  44  45 0
 3-21G
 ****


