%nproc=1
%NoSave
%Mem=1900MB
#P OB98/GEN NMR

erre ene a

0 1
  C     -328.703     101.929     -14.826
  O     -327.536     101.307     -15.310
  P     -327.529     100.593     -16.746
  C     -324.973     100.745     -16.473
  O     -326.066      99.951     -16.921
  C     -323.682      99.932     -16.514
  O     -323.642      99.073     -17.684
  C     -322.420     100.774     -16.627
  O     -322.093     101.602     -15.533
  C     -321.399      99.726     -17.034
  O     -320.929      98.990     -15.904
  C     -322.245      98.814     -17.960
  N     -321.923      99.022     -19.370
  C     -320.621      98.717     -19.749
  O     -319.766      98.296     -18.972
  N     -320.312      98.940     -21.063
  C     -321.149      99.472     -22.004
  O     -320.791      99.690     -23.154
  C     -322.507      99.790     -21.540
  C     -322.830      99.555     -20.265
  O     -327.969     101.450     -17.884
  O     -328.441      99.297     -16.517
  H     -321.710      98.628     -15.443
  H     -328.117      98.686     -15.832
  H     -319.371      98.739     -21.357
  H     -323.197     100.202     -22.264
  H     -323.825      99.783     -19.900
  H     -322.067      97.759     -17.720
  H     -320.522     100.174     -17.514
  H     -322.538     101.453     -17.482
  H     -323.658      99.281     -15.636
  H     -325.162     101.062     -15.443
  H     -324.898     101.645     -17.093
  P     -321.493     103.078     -15.695
  C     -322.045     103.728     -13.247
  O     -321.055     103.606     -14.245
  O     -322.253     104.020     -16.567
  O     -320.070     102.772     -16.376
  H     -319.827     103.521     -16.954
  H     -321.581     104.139     -12.345
  H     -322.467     102.749     -13.005
  H     -322.837     104.407     -13.572
  H     -328.511     102.345     -13.859
  H     -329.489     101.206     -14.753
  H     -328.997     102.708     -15.498

 3  4  5  6  7  8  9  10  11  12  13  23  28  29  30  31  32 0
 6-311+G(2d,p)
 ****
 33  34 0
 6-311+G(2d,p)
 ****
 1  2  14  15  16  17  18  19  20  21  22  24  25  26  27 0
 3-21G
 ****
 35  36  37  38  39  40  41  42  43  44  45 0
 3-21G
 ****


