%nproc=1
%NoSave
%Mem=1900MB
#P OB98/GEN NMR

erre ene a

0 1
  C      279.964    -177.459    -342.112
  O      279.455    -178.300    -341.099
  H      279.648    -176.433    -341.911
  H      279.559    -177.768    -343.078
  H      281.058    -177.493    -342.139
  P      280.107    -179.758    -340.959
  C      281.757    -179.643    -338.957
  O      280.446    -179.963    -339.402
  C      282.219    -180.640    -337.893
  O      283.622    -180.375    -337.588
  C      281.429    -180.561    -336.575
  O      281.289    -181.884    -336.043
  C      282.365    -179.785    -335.667
  O      282.113    -180.031    -334.289
  C      283.719    -180.298    -336.153
  N      288.020    -180.226    -333.565
  C      287.244    -181.289    -333.991
  N      287.642    -182.525    -333.623
  N      286.165    -181.147    -334.718
  C      285.893    -179.860    -335.035
  C      286.576    -178.723    -334.670
  C      287.759    -178.890    -333.852
  O      288.474    -177.987    -333.428
  N      285.944    -177.601    -335.142
  C      284.870    -178.058    -335.767
  N      284.796    -179.423    -335.727
  O      281.545    -179.564    -341.635
  O      279.339    -180.868    -341.597
  H      282.200    -180.993    -334.132
  H      281.510    -179.834    -342.571
  H      288.830    -180.386    -332.995
  H      284.114    -177.448    -336.241
  H      283.951    -181.300    -335.769
  H      282.261    -178.710    -335.854
  H      288.476    -182.712    -333.089
  H      280.445    -180.097    -336.674
  H      287.104    -183.313    -333.959
  H      282.170    -181.651    -338.317
  H      281.754    -178.636    -338.527
  H      282.440    -179.655    -339.814
  P      279.849    -182.322    -335.478
  C      277.991    -182.290    -337.294
  O      279.025    -183.025    -336.659
  O      279.100    -180.923    -335.285
  O      279.911    -183.086    -334.197
  H      278.508    -180.965    -334.513
  H      277.540    -182.893    -338.054
  H      278.401    -181.406    -337.736
  H      277.252    -182.017    -336.570

 6  7  8  9  10  11  12  13  14  15  26  29  33  34 0
 6-311+G(2d,p)
 ****
 36  38  39  40  41 0
 6-311+G(2d,p)
 ****
 1  2  3  4  5  16  17  18  19  20  21  22  23  24  25 0
 3-21G
 ****
 27  28  30  31  32  35  37  42  43  44  45  46  47 0
 3-21G
 ****
 48  49 0
 3-21G
 ****


