%nproc=1
%NoSave
%Mem=1900MB
#P OB98/GEN NMR

erre ene a

0 1
  C     -218.040    -352.871      49.020
  O     -217.214    -351.719      48.846
  P     -216.886    -350.645      49.980
  C     -218.034    -348.473      50.926
  O     -218.015    -349.512      49.953
  C     -219.356    -347.690      50.871
  O     -219.530    -347.170      49.511
  C     -220.575    -348.567      51.180
  O     -221.535    -347.926      52.017
  C     -221.037    -349.004      49.796
  O     -222.385    -349.455      49.771
  C     -220.721    -347.771      48.951
  N     -222.894    -348.665      44.415
  C     -223.480    -348.534      45.660
  N     -224.825    -348.685      45.711
  N     -222.813    -348.310      46.757
  C     -221.474    -348.264      46.580
  C     -220.772    -348.389      45.398
  C     -221.526    -348.593      44.181
  O     -221.055    -348.691      43.053
  N     -219.418    -348.279      45.610
  C     -219.300    -348.107      46.912
  N     -220.526    -348.082      47.548
  O     -215.468    -350.180      50.046
  O     -217.202    -351.436      51.354
  H     -222.947    -348.733      50.125
  H     -216.581    -351.080      52.021
  H     -223.460    -348.818      43.597
  H     -218.370    -347.975      47.445
  H     -221.526    -347.033      48.986
  H     -220.410    -349.852      49.491
  H     -225.388    -348.984      44.924
  H     -220.281    -349.454      51.757
  H     -225.223    -348.809      46.643
  H     -219.285    -346.836      51.554
  H     -217.196    -347.812      50.678
  H     -217.855    -348.878      51.921
  P     -222.660    -348.594      52.938
  C     -225.078    -349.411      52.726
  O     -223.957    -348.877      52.049
  O     -223.142    -347.415      53.912
  O     -222.182    -349.771      53.742
  H     -222.953    -347.660      54.846
  H     -225.789    -349.804      51.984
  H     -225.571    -348.621      53.296
  H     -224.785    -350.222      53.396
  H     -218.090    -353.416      48.101
  H     -219.024    -352.564      49.306
  H     -217.625    -353.495      49.783

 3  4  5  6  7  8  9  10  11  12  23  26  30  31 0
 6-311+G(2d,p)
 ****
 33  35  36  37  38 0
 6-311+G(2d,p)
 ****
 1  2  13  14  15  16  17  18  19  20  21  22  24  25 0
 3-21G
 ****
 27  28  29  32  34  39  40  41  42  43  44  45  46  47  48  49 0
 3-21G
 ****


