%nproc=1
%NoSave
%Mem=1900MB
#P OB98/GEN NMR

erre ene a

0 1
  C     -255.713    -162.780     104.937
  O     -255.632    -163.109     103.563
  P     -255.059    -162.015     102.545
  C     -254.708    -163.874     100.761
  O     -255.234    -162.589     101.057
  C     -255.481    -164.512      99.603
  O     -256.828    -164.851     100.048
  C     -255.621    -163.605      98.372
  O     -255.600    -164.447      97.210
  C     -257.012    -163.022      98.550
  O     -257.559    -162.503      97.350
  C     -257.748    -164.242      99.117
  N     -259.015    -163.897      99.753
  C     -260.117    -164.691      99.451
  O     -260.084    -165.655      98.688
  N     -261.302    -164.302     100.017
  C     -261.508    -163.178     100.760
  O     -262.621    -162.822     101.138
  C     -260.309    -162.375     101.045
  C     -259.137    -162.764     100.538
  O     -253.477    -162.075     102.790
  O     -255.600    -160.637     102.740
  H     -257.098    -161.667      97.152
  H     -253.193    -161.341     103.368
  H     -262.113    -164.875      99.820
  H     -260.432    -161.487     101.650
  H     -258.238    -162.181     100.716
  H     -257.924    -164.974      98.318
  H     -256.971    -162.205      99.282
  H     -254.844    -162.836      98.300
  H     -254.984    -165.452      99.331
  H     -254.797    -164.509     101.643
  H     -253.643    -163.789     100.515
  P     -254.785    -163.933      95.922
  C     -252.987    -165.805      96.245
  O     -253.926    -165.176      95.396
  O     -253.701    -162.982      96.616
  O     -255.638    -163.235      94.911
  H     -253.318    -163.372      97.419
  H     -253.321    -165.800      97.286
  H     -252.030    -165.281      96.171
  H     -252.851    -166.839      95.920
  H     -256.113    -163.611     105.480
  H     -256.351    -161.931     105.063
  H     -254.736    -162.550     105.307

 3  4  5  6  7  8  9  10  11  12  13  23  28  29  30  31  32 0
 6-311+G(2d,p)
 ****
 33  34 0
 6-311+G(2d,p)
 ****
 1  2  14  15  16  17  18  19  20  21  22  24  25  26 0
 3-21G
 ****
 27  35  36  37  38  39  40  41  42  43  44  45 0
 3-21G
 ****


