%nproc=1
%NoSave
%Mem=1900MB
#P OB98/GEN NMR

erre ene a

0 1
  C      624.292     129.838     511.211
  O      624.888     130.349     510.032
  H      623.925     128.822     511.004
  H      623.440     130.452     511.516
  H      625.028     129.785     512.016
  P      625.364     131.878     510.027
  C      627.230     131.172     508.378
  O      626.165     132.072     508.654
  C      627.818     131.458     506.998
  O      628.249     132.828     506.916
  C      629.034     130.611     506.681
  O      628.668     129.289     506.345
  C      629.662     131.415     505.553
  O      629.002     131.174     504.308
  C      629.400     132.865     506.034
  N      630.557     133.453     506.709
  C      631.637     133.798     505.888
  O      631.583     133.606     504.675
  N      632.763     134.325     506.487
  C      632.796     134.511     507.767
  N      633.934     135.040     508.284
  C      631.671     134.174     508.666
  C      630.596     133.656     508.073
  O      626.100     132.360     511.243
  O      624.008     132.694     509.777
  H      628.081     131.481     504.429
  H      623.581     132.906     510.626
  H      631.746     134.349     509.727
  H      629.726     133.377     508.667
  H      629.132     133.509     505.187
  H      630.716     131.182     505.429
  H      629.738     130.614     507.529
  H      627.031     131.307     506.247
  H      634.684     135.241     507.632
  H      626.808     130.164     508.404
  H      634.048     135.301     509.254
  H      628.012     131.246     509.139
  P      629.431     128.039     507.004
  C      627.492     126.821     505.799
  O      628.848     126.749     506.243
  O      629.379     127.976     508.500
  O      630.917     128.167     506.414
  H      631.413     128.894     506.846
  H      627.227     125.906     505.311
  H      627.384     127.635     505.113
  H      626.849     126.976     506.640

 6  7  8  9  10  11  12  13  14  15  16  26  30  31  32  33  35 0
 6-311+G(2d,p)
 ****
 37  38 0
 6-311+G(2d,p)
 ****
 1  2  3  4  5  17  18  19  20  21  22  23  24  25 0
 3-21G
 ****
 27  28  29  34  36  39  40  41  42  43  44  45  46 0
 3-21G
 ****


