%nproc=1
%NoSave
%Mem=1900MB
#P OB98/GEN NMR

erre ene a

0 1
  C     -234.185    -891.871     587.706
  O     -235.095    -892.561     586.863
  H     -233.730    -891.051     587.132
  H     -233.397    -892.541     588.054
  H     -234.714    -891.441     588.560
  P     -235.693    -893.951     587.381
  C     -235.442    -896.311     586.370
  O     -234.788    -895.091     586.672
  C     -234.869    -896.971     585.123
  O     -234.740    -896.021     584.042
  C     -233.446    -897.511     585.312
  O     -233.350    -898.601     586.196
  C     -232.973    -897.671     583.864
  O     -233.439    -898.891     583.279
  C     -233.667    -896.471     583.187
  N     -232.734    -895.391     582.889
  C     -232.193    -895.371     581.595
  O     -232.472    -896.231     580.738
  N     -231.331    -894.361     581.318
  C     -230.904    -893.411     582.201
  O     -230.095    -892.531     581.889
  C     -231.462    -893.491     583.560
  C     -232.342    -894.461     583.835
  O     -237.169    -894.141     587.170
  O     -235.237    -894.031     588.908
  H     -233.095    -899.621     583.826
  H     -235.747    -894.721     589.395
  H     -230.936    -894.331     580.390
  H     -231.135    -892.761     584.284
  H     -232.770    -894.541     584.838
  H     -234.140    -896.781     582.239
  H     -231.888    -897.651     583.780
  H     -232.821    -896.711     585.744
  H     -235.548    -897.761     584.797
  H     -236.507    -896.101     586.200
  H     -235.356    -896.991     587.230
  P     -232.326    -898.671     587.415
  C     -229.796    -899.241     587.768
  O     -230.879    -899.091     586.861
  O     -232.818    -899.341     588.664
  O     -232.123    -897.091     587.750
  H     -231.991    -897.031     588.734
  H     -228.915    -899.522     587.229
  H     -230.033    -900.000     588.484
  H     -229.624    -898.314     588.274

 6  7  8  9  10  11  12  13  14  15  16  26  31  32  33  34  35 0
 6-311+G(2d,p)
 ****
 36  37 0
 6-311+G(2d,p)
 ****
 1  2  3  4  5  17  18  19  20  21  22  23  24  25 0
 3-21G
 ****
 27  28  29  30  38  39  40  41  42  43  44  45 0
 3-21G
 ****


