%nproc=1
%NoSave
%Mem=1900MB
#P OB98/GEN NMR

erre ene a

0 1
  C       -3.758    -211.864    -100.183
  O       -3.689    -210.752     -99.315
  H       -3.391    -211.565    -101.168
  H       -4.795    -212.195    -100.283
  H       -3.140    -212.688     -99.816
  P       -3.911    -210.979     -97.745
  C       -1.995    -209.430     -96.983
  O       -2.485    -210.761     -97.044
  C       -0.501    -209.417     -96.652
  O       -0.320    -209.939     -95.300
  C        0.358    -210.284     -97.595
  O        1.643    -209.657     -97.700
  C        0.444    -211.576     -96.805
  O        1.442    -212.429     -97.303
  C        0.641    -211.010     -95.397
  N        0.451    -211.994     -94.340
  C        0.983    -213.262     -94.543
  O        1.619    -213.586     -95.545
  N        0.752    -214.171     -93.546
  C        0.052    -213.941     -92.399
  O       -0.107    -214.786     -91.527
  C       -0.512    -212.590     -92.254
  C       -0.290    -211.692     -93.216
  O       -4.616    -212.237     -97.366
  O       -4.734    -209.683     -97.290
  H       -5.685    -209.897     -97.250
  H        2.229    -211.913     -97.579
  H        1.132    -215.096     -93.676
  H       -1.091    -212.382     -91.365
  H       -0.693    -210.687     -93.145
  H        1.634    -210.561     -95.295
  H       -0.499    -212.125     -96.873
  H       -0.079    -210.393     -98.591
  H       -0.149    -208.379     -96.640
  H       -2.551    -208.896     -96.206
  H       -2.168    -208.938     -97.946
  P        1.974    -208.501     -98.764
  C        1.875    -206.437     -97.222
  O        1.270    -207.134     -98.302
  O        1.662    -208.879    -100.176
  O        3.538    -208.202     -98.596
  H        3.920    -207.991     -99.469
  H        1.315    -205.550     -97.012
  H        2.878    -206.172     -97.485
  H        1.888    -207.064     -96.355

 6  7  8  9  10  11  12  13  14  15  16  27  31  32  33  34  35 0
 6-311+G(2d,p)
 ****
 36  37 0
 6-311+G(2d,p)
 ****
 1  2  3  4  5  17  18  19  20  21  22  23  24  25 0
 3-21G
 ****
 26  28  29  30  38  39  40  41  42  43  44  45 0
 3-21G
 ****


