%nproc=1
%NoSave
%Mem=1900MB
#P OB98/GEN NMR

erre ene a

0 1
  C      -53.730      76.396     306.618
  O      -53.890      76.774     305.264
  H      -54.682      75.988     306.982
  H      -53.469      77.271     307.220
  H      -52.956      75.629     306.714
  P      -52.562      77.230     304.482
  C      -53.665      79.611     304.290
  O      -52.976      78.543     303.657
  C      -54.186      80.606     303.250
  O      -55.159      79.933     302.408
  C      -54.872      81.837     303.866
  O      -54.586      82.970     303.041
  C      -56.354      81.498     303.760
  O      -57.169      82.663     303.780
  C      -56.388      80.690     302.449
  N      -57.561      79.825     302.356
  C      -57.954      79.432     301.069
  O      -57.326      79.837     300.082
  N      -59.067      78.644     300.930
  C      -59.767      78.322     301.969
  N      -60.873      77.557     301.757
  C      -59.418      78.748     303.343
  C      -58.306      79.481     303.460
  O      -52.437      76.097     303.357
  O      -51.354      77.375     305.348
  H      -57.189      83.017     304.696
  H      -53.282      75.891     302.921
  H      -60.037      78.461     304.177
  H      -57.969      79.827     304.433
  H      -56.390      81.372     301.584
  H      -56.651      80.860     304.601
  H      -54.552      82.030     304.892
  H      -53.353      80.906     302.600
  H      -61.088      77.307     300.798
  H      -52.999      80.128     304.988
  H      -61.520      77.296     302.488
  H      -54.496      79.182     304.862
  P      -53.856      84.244     303.683
  C      -55.362      86.337     303.432
  O      -54.296      85.563     302.883
  O      -52.390      84.103     303.917
  O      -54.629      84.423     305.084
  H      -53.966      84.652     305.764
  H      -55.551      87.181     302.802
  H      -55.090      86.675     304.410
  H      -56.244      85.735     303.495

 6  7  8  9  10  11  12  13  14  15  16  26  30  31  32  33  35 0
 6-311+G(2d,p)
 ****
 37  38 0
 6-311+G(2d,p)
 ****
 1  2  3  4  5  17  18  19  20  21  22  23  24  25 0
 3-21G
 ****
 27  28  29  34  36  39  40  41  42  43  44  45  46 0
 3-21G
 ****


