%nproc=1
%NoSave
%Mem=1900MB
#P OB98/GEN NMR

erre ene a

0 1
  C     -271.473     469.916     523.352
  O     -270.703     471.089     523.257
  H     -271.118     469.199     522.608
  H     -272.526     470.131     523.140
  H     -271.370     469.463     524.341
  P     -271.039     472.332     524.211
  C     -268.914     471.929     525.603
  O     -270.335     471.989     525.621
  C     -268.357     471.507     526.965
  O     -269.100     470.360     527.469
  C     -266.868     471.126     526.944
  O     -266.184     471.769     528.016
  C     -266.883     469.614     527.159
  O     -265.675     469.125     527.712
  C     -268.130     469.466     528.054
  N     -268.603     468.100     528.107
  C     -268.159     467.334     529.209
  O     -267.416     467.846     530.043
  N     -268.506     466.011     529.279
  C     -269.222     465.480     528.335
  N     -269.510     464.167     528.462
  C     -269.685     466.239     527.149
  C     -269.348     467.527     527.104
  O     -272.486     472.684     524.296
  O     -270.137     473.531     523.656
  H     -265.566     469.504     528.605
  H     -270.535     474.390     523.946
  H     -270.264     465.742     526.379
  H     -269.641     468.163     526.267
  H     -267.925     469.820     529.071
  H     -267.059     469.114     526.203
  H     -266.379     471.387     526.002
  H     -268.546     472.324     527.680
  H     -269.167     463.682     529.270
  H     -268.530     472.921     525.315
  H     -270.024     463.632     527.767
  H     -268.610     471.194     524.847
  P     -265.388     473.115     527.660
  C     -267.104     474.694     528.816
  O     -266.463     474.315     527.599
  O     -264.970     472.903     526.121
  O     -264.205     473.360     528.531
  H     -264.007     472.772     526.064
  H     -267.786     475.496     528.625
  H     -266.367     475.013     529.523
  H     -267.640     473.857     529.213

 6  7  8  9  10  11  12  13  14  15  16  26  30  31  32  33  35 0
 6-311+G(2d,p)
 ****
 37  38 0
 6-311+G(2d,p)
 ****
 1  2  3  4  5  17  18  19  20  21  22  23  24  25 0
 3-21G
 ****
 27  28  29  34  36  39  40  41  42  43  44  45  46 0
 3-21G
 ****


