%nproc=1
%NoSave
%Mem=1900MB
#P OB98/GEN NMR

erre ene a

0 1
  C       65.382      92.161     309.909
  O       65.501      93.505     310.354
  P       66.942      93.998     310.877
  C       68.005      94.524     313.220
  O       66.877      94.090     312.472
  C       67.589      94.988     314.627
  O       66.729      96.136     314.496
  C       66.799      93.973     315.441
  O       66.861      94.347     316.822
  C       65.391      94.190     314.923
  O       64.414      93.660     315.815
  C       65.349      95.723     314.714
  N       64.497      96.151     313.585
  C       63.719      97.297     313.740
  O       63.689      97.984     314.753
  N       62.918      97.627     312.678
  C       62.844      96.952     311.484
  O       62.057      97.242     310.596
  C       63.794      95.839     311.322
  C       64.548      95.489     312.371
  O       67.026      95.520     310.398
  O       68.076      93.175     310.348
  H       64.590      94.074     316.698
  H       67.615      95.604     309.639
  H       62.304      98.414     312.789
  H       63.824      95.319     310.377
  H       65.236      94.652     312.273
  H       64.970      96.236     315.619
  H       65.267      93.685     313.962
  H       67.121      92.928     315.319
  H       68.491      95.309     315.172
  H       68.508      95.345     312.682
  H       68.734      93.704     313.303
  P       67.402      93.254     317.871
  C       66.386      91.870     319.785
  O       66.123      92.773     318.720
  O       68.600      93.654     318.664
  O       67.709      91.982     316.940
  H       68.308      91.378     317.406
  H       65.630      92.026     320.558
  H       67.384      92.032     320.223
  H       66.317      90.843     319.411
  H       64.376      91.978     309.593
  H       65.631      91.497     310.710
  H       66.049      91.997     309.089

 3  4  5  6  7  8  9  10  11  12  13  23  28  29  30  31  32 0
 6-311+G(2d,p)
 ****
 33  34 0
 6-311+G(2d,p)
 ****
 1  2  14  15  16  17  18  19  20  21  22  24  25  26  27 0
 3-21G
 ****
 35  36  37  38  39  40  41  42  43  44  45 0
 3-21G
 ****


