%nproc=1
%NoSave
%Mem=1900MB
#P OB98/GEN NMR

erre ene a

0 1
  C       37.625     -93.733      18.057
  O       38.966     -94.120      18.281
  H       37.079     -94.550      17.578
  H       37.158     -93.513      19.020
  H       37.582     -92.837      17.431
  P       39.887     -94.320      16.983
  C       40.863     -91.934      16.648
  O       41.081     -93.253      17.126
  C       41.873     -90.968      17.270
  O       41.874     -91.157      18.710
  C       43.307     -91.178      16.773
  O       43.937     -89.904      16.627
  C       43.963     -91.955      17.902
  O       45.374     -91.779      17.929
  C       43.236     -91.390      19.119
  N       46.214     -93.326      22.787
  C       46.422     -92.353      21.874
  N       45.571     -91.891      20.933
  C       44.381     -92.512      21.027
  C       44.022     -93.522      21.902
  C       45.007     -93.940      22.813
  N       44.816     -94.956      23.721
  N       42.722     -93.928      21.665
  C       42.308     -93.175      20.664
  N       43.277     -92.307      20.244
  O       38.972     -93.705      15.818
  O       40.301     -95.721      16.689
  H       45.721     -92.204      18.741
  H       38.300     -94.361      15.554
  H       47.404     -91.887      21.897
  H       41.330     -93.224      20.206
  H       43.664     -90.438      19.460
  H       43.754     -93.025      17.785
  H       43.351     -91.716      15.824
  H       41.535     -89.941      17.086
  H       39.848     -91.622      16.913
  H       45.595     -95.228      24.298
  H       43.944     -95.466      23.714
  H       40.967     -91.924      15.557
  P       44.388     -89.485      15.145
  C       42.257     -88.788      13.844
  O       43.379     -88.360      14.602
  O       44.027     -90.775      14.269
  O       45.838     -89.141      15.036
  H       44.792     -91.031      13.721
  H       41.678     -87.937      13.552
  H       41.654     -89.442      14.438
  H       42.593     -89.308      12.971

 6  7  8  9  10  11  12  13  14  15  25  28  32  33  34  35 0
 6-311+G(2d,p)
 ****
 36  39  40 0
 6-311+G(2d,p)
 ****
 1  2  3  4  5  16  17  18  19  20  21  22  23  24 0
 3-21G
 ****
 26  27  29  30  31  37  38  41  42  43  44  45  46  47 0
 3-21G
 ****
 48 0
 3-21G
 ****


