%nproc=1
%NoSave
%Mem=1900MB
#P OB98/GEN NMR

erre ene a

0 1
  C      -95.511     389.422     651.203
  O      -95.270     388.501     652.278
  P      -96.460     387.693     652.988
  C      -96.375     385.301     653.968
  O      -95.827     386.621     654.008
  C      -95.330     384.243     654.337
  O      -94.298     384.168     653.322
  C      -94.600     384.505     655.657
  O      -95.417     384.118     656.753
  C      -93.342     383.663     655.466
  O      -93.608     382.283     655.761
  C      -93.052     383.849     653.972
  N      -88.112     384.755     652.972
  C      -88.813     383.599     653.156
  N      -90.116     383.440     653.417
  C      -90.734     384.639     653.479
  C      -90.166     385.899     653.311
  C      -88.784     385.933     653.061
  N      -88.082     387.103     652.888
  N      -91.118     386.889     653.466
  C      -92.248     386.242     653.690
  N      -92.062     384.879     653.706
  O      -97.464     387.109     652.040
  O      -97.156     388.757     653.963
  H      -93.847     382.216     656.710
  H      -98.102     388.527     654.089
  H      -88.221     382.685     653.070
  H      -93.206     386.714     653.852
  H      -92.693     382.921     653.518
  H      -92.522     383.982     656.124
  H      -94.322     385.558     655.731
  H      -95.831     383.269     654.362
  H      -96.745     385.113     652.948
  H      -87.088     387.045     652.737
  H      -88.561     387.989     652.993
  H      -97.220     385.252     654.666
  P      -96.351     385.214     657.473
  C      -98.595     385.040     658.703
  O      -97.358     384.412     658.430
  O      -96.991     386.211     656.568
  O      -95.360     385.927     658.517
  H      -95.653     386.849     658.652
  H      -98.452     385.804     659.483
  H      -99.300     384.297     659.072
  H      -99.007     385.513     657.807
  H      -94.583     389.846     650.881
  H      -96.161     390.202     651.541
  H      -95.969     388.905     650.386

 3  4  5  6  7  8  9  10  11  12  22  25  29  30  31  32 0
 6-311+G(2d,p)
 ****
 33  36  37 0
 6-311+G(2d,p)
 ****
 1  2  13  14  15  16  17  18  19  20  21  23  24  26 0
 3-21G
 ****
 27  28  34  35  38  39  40  41  42  43  44  45  46  47  48 0
 3-21G
 ****


