%nproc=1
%NoSave
%Mem=1900MB
#P OB98/GEN NMR

erre ene a

0 1
  C      -10.002      -3.917      24.706
  O      -10.344      -2.874      25.595
  H       -9.634      -3.478      23.775
  H      -10.880      -4.529      24.484
  H       -9.215      -4.538      25.140
  P      -10.966      -3.303      27.010
  C       -9.965      -4.675      28.975
  O      -10.055      -4.499      27.568
  C       -9.843      -6.160      29.297
  O      -10.913      -6.891      28.656
  C       -8.557      -6.802      28.797
  O       -7.452      -6.513      29.633
  C       -8.942      -8.271      28.816
  O       -8.774      -8.843      30.123
  C      -10.434      -8.230      28.417
  N      -10.645      -8.649      27.036
  C      -10.695     -10.023      26.823
  O      -10.571     -10.850      27.726
  N      -10.856     -10.422      25.525
  C      -10.931      -9.599      24.440
  O      -11.001     -10.023      23.293
  C      -10.887      -8.156      24.726
  C      -10.738      -7.753      25.991
  O      -12.334      -4.025      26.600
  O      -11.185      -2.182      27.970
  H      -13.087      -3.426      26.760
  H       -9.076      -9.770      30.056
  H      -10.884     -11.414      25.350
  H      -10.950      -7.475      23.887
  H      -10.682      -6.694      26.224
  H      -11.020      -8.894      29.065
  H       -8.326      -8.856      28.134
  H       -8.361      -6.501      27.761
  H       -9.943      -6.289      30.383
  H      -10.867      -4.279      29.451
  H       -9.097      -4.122      29.349
  P       -5.974      -6.744      29.056
  C       -4.783      -5.914      26.867
  O       -5.989      -6.219      27.541
  O       -5.941      -8.336      28.917
  O       -4.899      -6.163      29.909
  H       -6.798      -8.712      28.655
  H       -5.003      -5.582      25.874
  H       -4.168      -6.789      26.823
  H       -4.265      -5.140      27.395

 6  7  8  9  10  11  12  13  14  15  16  27  31  32  33  34  35 0
 6-311+G(2d,p)
 ****
 36  37 0
 6-311+G(2d,p)
 ****
 1  2  3  4  5  17  18  19  20  21  22  23  24  25 0
 3-21G
 ****
 26  28  29  30  38  39  40  41  42  43  44  45 0
 3-21G
 ****


