%nproc=1
%NoSave
%Mem=1900MB
#P OB98/GEN NMR

erre ene a

0 1
  C     -628.304    -954.072      49.076
  O     -629.555    -954.200      48.443
  H     -628.279    -954.730      49.947
  H     -628.140    -953.041      49.414
  H     -627.492    -954.360      48.395
  P     -629.842    -953.332      47.129
  C     -632.100    -952.658      48.180
  O     -631.432    -953.183      47.032
  C     -633.522    -952.247      47.803
  O     -633.507    -951.160      46.855
  C     -634.346    -953.365      47.156
  O     -634.865    -954.245      48.152
  C     -635.423    -952.551      46.462
  O     -636.401    -952.100      47.425
  C     -634.609    -951.365      45.927
  N     -634.332    -949.515      41.211
  C     -635.063    -949.064      42.308
  N     -635.844    -947.984      42.102
  N     -635.015    -949.624      43.483
  C     -634.236    -950.729      43.520
  C     -633.482    -951.271      42.500
  C     -633.500    -950.622      41.218
  O     -632.854    -950.962      40.237
  N     -632.863    -952.436      42.912
  C     -633.211    -952.560      44.175
  N     -634.058    -951.549      44.587
  O     -629.194    -953.807      45.864
  O     -629.355    -951.863      47.521
  H     -635.918    -951.468      48.010
  H     -628.424    -951.708      47.277
  H     -634.418    -949.046      40.317
  H     -632.879    -953.350      44.833
  H     -635.190    -950.442      45.899
  H     -635.954    -953.129      45.694
  H     -636.145    -947.714      41.171
  H     -633.764    -953.909      46.399
  H     -636.428    -947.671      42.864
  H     -634.013    -951.882      48.710
  H     -631.529    -951.786      48.516
  H     -632.121    -953.387      48.979
  P     -634.400    -955.782      48.246
  C     -636.844    -956.433      48.666
  O     -635.504    -956.501      49.116
  O     -632.991    -955.973      48.712
  O     -634.671    -956.358      46.779
  H     -633.911    -956.229      46.160
  H     -637.477    -956.960      49.349
  H     -636.917    -956.878      47.696
  H     -637.151    -955.409      48.613

 6  7  8  9  10  11  12  13  14  15  26  29  33  34 0
 6-311+G(2d,p)
 ****
 36  38  39  40  41 0
 6-311+G(2d,p)
 ****
 1  2  3  4  5  16  17  18  19  20  21  22  23  24  25 0
 3-21G
 ****
 27  28  30  31  32  35  37  42  43  44  45  46  47 0
 3-21G
 ****
 48  49 0
 3-21G
 ****


