%nproc=1
%NoSave
%Mem=1900MB
#P OB98/GEN NMR

erre ene a

0 1
  C     -106.359     234.985    -354.726
  O     -105.794     235.047    -356.021
  H     -106.421     235.998    -354.318
  H     -105.723     234.382    -354.074
  H     -107.367     234.557    -354.765
  P     -105.803     233.693    -356.879
  C     -103.361     233.224    -356.126
  O     -104.690     232.734    -356.230
  C     -102.395     232.301    -356.861
  O     -102.702     230.916    -356.574
  C     -102.437     232.434    -358.385
  O     -101.648     233.529    -358.841
  C     -101.828     231.105    -358.798
  O     -100.393     231.153    -358.630
  C     -102.453     230.142    -357.781
  N     -104.541     226.156    -360.126
  C     -103.207     226.443    -359.868
  N     -102.305     225.536    -360.298
  N     -102.796     227.511    -359.241
  C     -103.813     228.336    -358.871
  C     -105.165     228.164    -359.071
  C     -105.607     226.968    -359.754
  O     -106.770     226.661    -359.993
  N     -105.886     229.204    -358.545
  C     -104.974     230.016    -358.048
  N     -103.695     229.537    -358.226
  O     -105.139     234.130    -358.273
  O     -107.145     233.075    -357.087
  H     -100.077     231.927    -359.129
  H     -105.574     233.639    -358.997
  H     -104.797     225.321    -360.621
  H     -105.177     230.956    -357.552
  H     -101.772     229.326    -357.512
  H     -102.015     230.865    -359.844
  H     -102.549     224.715    -360.834
  H     -103.465     232.501    -358.753
  H     -101.328     225.704    -360.096
  H     -101.379     232.500    -356.486
  H     -103.078     233.274    -355.069
  H     -103.319     234.233    -356.553
  P     -102.269     234.466    -359.989
  C     -101.539     233.299    -362.193
  O     -102.568     233.487    -361.228
  O     -101.001     235.316    -360.486
  O     -103.395     235.338    -359.548
  H     -101.302     236.147    -360.897
  H     -101.881     232.627    -362.952
  H     -100.674     232.888    -361.716
  H     -101.289     234.240    -362.636

 6  7  8  9  10  11  12  13  14  15  26  29  33  34 0
 6-311+G(2d,p)
 ****
 36  38  39  40  41 0
 6-311+G(2d,p)
 ****
 1  2  3  4  5  16  17  18  19  20  21  22  23  24  25 0
 3-21G
 ****
 27  28  30  31  32  35  37  42  43  44  45  46  47 0
 3-21G
 ****
 48  49 0
 3-21G
 ****


