%nproc=1
%NoSave
%Mem=1900MB
#P OB98/GEN NMR

erre ene a

0 1
  C     -200.324       0.350     -11.781
  O     -201.071      -0.755     -11.307
  H     -199.695       0.721     -10.970
  H     -200.998       1.149     -12.101
  H     -199.685       0.042     -12.612
  P     -202.047      -1.465     -12.364
  C     -199.840      -2.749     -12.785
  O     -201.057      -2.268     -13.337
  C     -199.502      -4.124     -13.354
  O     -198.122      -4.448     -13.111
  C     -200.307      -5.269     -12.752
  O     -201.591      -5.353     -13.350
  C     -199.434      -6.457     -13.121
  O     -199.664      -6.821     -14.497
  C     -198.012      -5.889     -12.962
  N     -195.302      -9.336     -10.293
  C     -195.936      -9.418     -11.482
  N     -196.672      -8.477     -12.110
  C     -196.724      -7.349     -11.384
  C     -196.126      -7.118     -10.154
  C     -195.377      -8.172      -9.607
  N     -194.723      -8.080      -8.398
  N     -196.399      -5.841      -9.711
  C     -197.103      -5.294     -10.681
  N     -197.357      -6.178     -11.699
  O     -203.046      -0.577     -13.020
  O     -202.667      -2.637     -11.465
  H     -200.597      -7.093     -14.575
  H     -201.989      -3.011     -10.876
  H     -195.838     -10.368     -12.001
  H     -197.438      -4.264     -10.703
  H     -197.340      -6.250     -13.750
  H     -199.654      -7.339     -12.517
  H     -200.362      -5.190     -11.661
  H     -199.638      -4.080     -14.442
  H     -199.912      -2.805     -11.693
  H     -194.356      -8.931      -8.001
  H     -194.884      -7.259      -7.833
  H     -199.055      -2.031     -13.042
  P     -202.737      -6.264     -12.698
  C     -203.020      -4.538     -10.814
  O     -202.774      -5.902     -11.134
  O     -202.632      -7.719     -12.994
  O     -204.103      -5.643     -13.245
  H     -204.746      -6.353     -13.437
  H     -203.022      -4.416      -9.751
  H     -203.970      -4.245     -11.209
  H     -202.252      -3.927     -11.242

 6  7  8  9  10  11  12  13  14  15  25  28  32  33  34  35 0
 6-311+G(2d,p)
 ****
 36  39  40 0
 6-311+G(2d,p)
 ****
 1  2  3  4  5  16  17  18  19  20  21  22  23  24 0
 3-21G
 ****
 26  27  29  30  31  37  38  41  42  43  44  45  46  47 0
 3-21G
 ****
 48 0
 3-21G
 ****


