%nproc=1
%NoSave
%Mem=1900MB
#P OB98/GEN NMR

erre ene a

0 1
  C     -288.521    -520.032    -898.574
  O     -288.578    -518.666    -898.234
  H     -288.618    -520.129    -899.674
  H     -289.341    -520.586    -898.104
  H     -287.565    -520.478    -898.274
  P     -288.487    -518.320    -896.674
  C     -287.300    -516.398    -895.364
  O     -287.300    -517.251    -896.514
  C     -285.930    -515.742    -895.184
  O     -284.933    -516.741    -894.814
  C     -285.389    -515.041    -896.434
  O     -285.948    -513.752    -896.574
  C     -283.902    -515.026    -896.154
  O     -283.555    -513.948    -895.274
  C     -283.695    -516.384    -895.484
  N     -279.827    -519.211    -897.124
  C     -279.875    -518.279    -896.124
  N     -278.701    -517.969    -895.494
  N     -280.959    -517.625    -895.764
  C     -282.049    -517.993    -896.484
  C     -282.135    -518.919    -897.494
  C     -280.925    -519.651    -897.854
  O     -280.829    -520.543    -898.684
  N     -283.414    -519.036    -897.994
  C     -284.098    -518.123    -897.314
  N     -283.310    -517.457    -896.384
  O     -287.863    -519.654    -896.024
  O     -289.770    -517.958    -896.014
  H     -283.798    -513.094    -895.694
  H     -288.184    -519.762    -895.114
  H     -278.965    -519.678    -897.334
  H     -285.150    -517.926    -897.414
  H     -282.910    -516.352    -894.714
  H     -283.326    -514.888    -897.054
  H     -277.816    -518.168    -895.924
  H     -285.590    -515.644    -897.354
  H     -278.718    -517.253    -894.784
  H     -286.010    -515.039    -894.374
  H     -287.527    -517.012    -894.484
  H     -288.078    -515.632    -895.484
  P     -285.767    -512.981    -897.974
  C     -286.798    -510.866    -899.084
  O     -286.838    -511.780    -897.994
  O     -286.372    -514.025    -899.054
  O     -284.361    -512.604    -898.304
  H     -286.057    -513.793    -899.934
  H     -287.564    -510.129    -898.960
  H     -286.958    -511.396    -900.000
  H     -285.842    -510.386    -899.112

 6  7  8  9  10  11  12  13  14  15  26  29  33  34 0
 6-311+G(2d,p)
 ****
 36  38  39  40  41 0
 6-311+G(2d,p)
 ****
 1  2  3  4  5  16  17  18  19  20  21  22  23  24  25 0
 3-21G
 ****
 27  28  30  31  32  35  37  42  43  44  45  46  47 0
 3-21G
 ****
 48  49 0
 3-21G
 ****


