%nproc=1
%NoSave
%Mem=1900MB
#P OB98/GEN NMR

erre ene a

0 1
  C      206.509    -514.959     -66.169
  O      206.560    -514.176     -64.992
  P      207.647    -513.003     -64.860
  C      205.937    -511.161     -64.308
  O      206.916    -511.624     -65.240
  C      206.520    -510.023     -63.462
  O      206.865    -508.901     -64.306
  C      205.557    -509.468     -62.428
  O      205.463    -510.339     -61.316
  C      206.190    -508.111     -62.119
  O      207.268    -508.258     -61.182
  C      206.729    -507.704     -63.505
  N      205.698    -502.751     -64.124
  C      206.509    -503.394     -63.253
  N      206.703    -504.725     -63.124
  C      205.928    -505.402     -63.993
  C      205.032    -504.876     -64.920
  C      204.942    -503.477     -64.987
  N      204.169    -502.794     -65.895
  N      204.395    -505.888     -65.607
  C      204.908    -506.997     -65.112
  N      205.874    -506.751     -64.188
  O      208.939    -513.246     -65.570
  O      207.878    -512.865     -63.284
  H      207.963    -508.797     -61.625
  H      208.812    -513.054     -63.073
  H      207.079    -502.766     -62.584
  H      204.604    -508.009     -65.405
  H      207.729    -507.254     -63.433
  H      205.485    -507.404     -61.692
  H      204.574    -509.308     -62.877
  H      207.443    -510.378     -62.991
  H      205.665    -511.993     -63.660
  H      204.295    -501.801     -65.951
  H      203.843    -503.304     -66.723
  H      205.049    -510.816     -64.840
  P      204.103    -511.132     -61.031
  C      204.388    -513.298     -62.369
  O      203.788    -512.015     -62.336
  O      202.964    -510.301     -60.531
  O      204.528    -512.232     -59.950
  H      203.762    -512.410     -59.353
  H      205.439    -513.197     -62.642
  H      203.876    -513.898     -63.121
  H      204.307    -513.793     -61.405
  H      205.729    -515.686     -66.080
  H      207.446    -515.456     -66.308
  H      206.313    -514.327     -67.010

 3  4  5  6  7  8  9  10  11  12  22  25  29  30  31  32 0
 6-311+G(2d,p)
 ****
 33  36  37 0
 6-311+G(2d,p)
 ****
 1  2  13  14  15  16  17  18  19  20  21  23  24  26 0
 3-21G
 ****
 27  28  34  35  38  39  40  41  42  43  44  45  46  47  48 0
 3-21G
 ****


