%nproc=1
%NoSave
%Mem=1900MB
#P OB98/GEN NMR

erre ene a

0 1
  C       16.387      -3.587      42.306
  O       17.315      -3.004      41.406
  P       17.216      -1.450      41.024
  C       15.675      -2.017      39.046
  O       15.828      -1.260      40.241
  C       15.160      -1.134      37.912
  O       14.946      -1.956      36.741
  C       13.840      -0.443      38.234
  O       13.841       0.857      37.637
  C       12.792      -1.288      37.530
  O       11.623      -0.513      37.216
  C       13.578      -1.796      36.318
  N       10.212      -4.145      33.237
  C       10.460      -2.838      33.464
  N       11.350      -2.284      34.315
  C       12.068      -3.237      34.931
  C       11.932      -4.611      34.798
  C       10.947      -5.064      33.904
  N       10.705      -6.400      33.665
  N       12.826      -5.272      35.618
  C       13.500      -4.314      36.216
  N       13.087      -3.068      35.827
  O       18.406      -0.897      40.319
  O       16.952      -0.710      42.414
  H       10.942      -1.139      36.892
  H       17.435       0.138      42.445
  H        9.858      -2.140      32.888
  H       14.284      -4.467      36.942
  H       13.559      -1.074      35.493
  H       12.484      -2.111      38.185
  H       13.653      -0.360      39.309
  H       15.933      -0.398      37.660
  H       14.954      -2.817      39.235
  H       10.067      -6.628      32.920
  H       11.364      -7.075      34.027
  H       16.635      -2.471      38.778
  P       13.995       2.097      38.654
  C       11.758       1.444      39.813
  O       13.142       1.674      39.942
  O       13.654       3.398      38.006
  O       15.527       1.948      39.096
  H       15.842       1.023      38.999
  H       11.349       1.207      40.799
  H       11.576       0.595      39.149
  H       11.255       2.334      39.426
  H       16.617      -4.624      42.433
  H       15.397      -3.486      41.913
  H       16.447      -3.090      43.252

 3  4  5  6  7  8  9  10  11  12  22  25  29  30  31  32 0
 6-311+G(2d,p)
 ****
 33  36  37 0
 6-311+G(2d,p)
 ****
 1  2  13  14  15  16  17  18  19  20  21  23  24  26 0
 3-21G
 ****
 27  28  34  35  38  39  40  41  42  43  44  45  46  47  48 0
 3-21G
 ****


