%nproc=1
%NoSave
%Mem=1900MB
#P OB98/GEN NMR

erre ene a

0 1
  C      -44.186     534.450    -529.469
  O      -43.262     534.760    -528.443
  H      -44.321     533.364    -529.501
  H      -43.804     534.784    -530.438
  H      -45.152     534.919    -529.263
  P      -42.905     536.316    -528.250
  C      -45.212     536.815    -527.180
  O      -44.311     537.096    -528.233
  C      -45.199     537.942    -526.145
  O      -43.997     537.882    -525.345
  C      -45.253     539.341    -526.743
  O      -46.588     539.710    -527.052
  C      -44.654     540.172    -525.618
  O      -45.632     540.456    -524.589
  C      -43.555     539.242    -525.084
  N      -38.573     538.866    -524.368
  C      -39.617     538.480    -523.561
  N      -39.287     537.970    -522.346
  N      -40.872     538.597    -523.890
  C      -41.051     539.159    -525.111
  C      -40.097     539.565    -526.012
  C      -38.707     539.396    -525.639
  O      -37.732     539.657    -526.341
  N      -40.669     540.061    -527.155
  C      -41.973     539.995    -526.923
  N      -42.249     539.469    -525.688
  O      -42.272     536.733    -529.664
  O      -41.979     536.625    -527.123
  H      -46.151     539.651    -524.419
  H      -41.614     537.439    -529.519
  H      -37.622     538.733    -524.063
  H      -42.732     540.322    -527.611
  H      -43.421     539.341    -524.002
  H      -44.291     541.138    -525.974
  H      -38.391     538.161    -521.918
  H      -44.611     539.412    -527.630
  H      -40.051     537.704    -521.737
  H      -46.041     537.779    -525.464
  H      -44.912     535.877    -526.687
  H      -46.226     536.697    -527.581
  P      -46.821     540.666    -528.321
  C      -45.920     538.925    -530.040
  O      -45.760     540.204    -529.436
  O      -46.256     542.077    -527.828
  O      -48.246     540.760    -528.783
  H      -46.579     542.791    -528.409
  H      -45.140     538.768    -530.755
  H      -46.869     538.879    -530.532
  H      -45.871     538.166    -529.287

 6  7  8  9  10  11  12  13  14  15  26  29  33  34 0
 6-311+G(2d,p)
 ****
 36  38  39  40  41 0
 6-311+G(2d,p)
 ****
 1  2  3  4  5  16  17  18  19  20  21  22  23  24  25 0
 3-21G
 ****
 27  28  30  31  32  35  37  42  43  44  45  46  47 0
 3-21G
 ****
 48  49 0
 3-21G
 ****


