%nproc=1
%NoSave
%Mem=1900MB
#P OB98/GEN NMR

erre ene a

0 1
  C     -335.446    -275.618     399.770
  O     -336.223    -274.643     400.444
  H     -335.522    -275.442     398.694
  H     -335.830    -276.617     399.993
  H     -334.398    -275.543     400.070
  P     -336.063    -274.581     402.036
  C     -337.390    -272.316     402.069
  O     -337.232    -273.627     402.597
  C     -338.828    -271.839     402.277
  O     -339.741    -272.601     401.471
  C     -339.348    -272.024     403.696
  O     -338.777    -271.119     404.609
  C     -340.842    -271.810     403.478
  O     -341.186    -270.426     403.490
  C     -341.053    -272.417     402.060
  N     -341.819    -273.649     402.107
  C     -343.210    -273.487     402.216
  O     -343.692    -272.359     402.235
  N     -343.991    -274.603     402.324
  C     -343.440    -275.773     402.356
  N     -344.274    -276.845     402.507
  C     -341.982    -275.993     402.250
  C     -341.239    -274.890     402.134
  O     -334.746    -273.687     402.218
  O     -335.998    -275.910     402.710
  H     -342.160    -270.387     403.609
  H     -334.756    -272.866     401.699
  H     -341.571    -276.994     402.273
  H     -340.159    -274.961     402.046
  H     -341.586    -271.706     401.420
  H     -341.433    -272.297     404.254
  H     -339.191    -273.064     404.016
  H     -338.881    -270.783     401.968
  H     -345.259    -276.642     402.624
  H     -337.132    -272.293     401.001
  H     -343.956    -277.794     402.619
  H     -336.685    -271.660     402.590
  P     -338.901    -271.333     406.186
  C     -336.316    -271.333     406.241
  O     -337.516    -270.832     406.836
  O     -339.308    -272.706     406.610
  O     -339.913    -270.186     406.640
  H     -339.619    -269.281     406.441
  H     -335.468    -270.932     406.756
  H     -336.279    -271.041     405.212
  H     -336.303    -272.401     406.310

 6  7  8  9  10  11  12  13  14  15  16  26  30  31  32  33  35 0
 6-311+G(2d,p)
 ****
 37  38 0
 6-311+G(2d,p)
 ****
 1  2  3  4  5  17  18  19  20  21  22  23  24  25 0
 3-21G
 ****
 27  28  29  34  36  39  40  41  42  43  44  45  46 0
 3-21G
 ****


