%nproc=1
%NoSave
%Mem=1900MB
#P OB98/GEN NMR

erre ene a

0 1
  C      273.317      -9.608    -191.011
  O      272.372      -9.986    -191.985
  H      273.509     -10.465    -190.356
  H      272.922      -8.788    -190.400
  H      274.260      -9.303    -191.480
  P      272.098      -8.934    -193.173
  C      272.401     -10.585    -195.152
  O      272.920      -9.468    -194.449
  C      273.544     -11.509    -195.592
  O      274.269     -11.983    -194.424
  C      273.090     -12.748    -196.342
  O      272.865     -12.481    -197.724
  C      274.294     -13.655    -196.149
  O      275.360     -13.253    -197.039
  C      274.682     -13.358    -194.692
  N      275.503     -16.789    -191.045
  C      276.399     -16.097    -191.837
  N      277.712     -16.373    -191.634
  N      276.057     -15.228    -192.749
  C      274.714     -15.058    -192.847
  C      273.720     -15.684    -192.117
  C      274.123     -16.634    -191.107
  O      273.367     -17.257    -190.365
  N      272.474     -15.257    -192.499
  C      272.713     -14.381    -193.465
  N      274.057     -14.240    -193.722
  O      272.928      -7.641    -192.718
  O      270.665      -8.597    -193.418
  H      275.516     -12.305    -196.880
  H      272.440      -6.840    -192.984
  H      275.822     -17.457    -190.368
  H      271.945     -13.843    -194.008
  H      275.766     -13.415    -194.527
  H      274.085     -14.705    -196.369
  H      278.045     -17.069    -190.987
  H      272.205     -13.221    -195.874
  H      278.394     -15.857    -192.180
  H      274.241     -10.921    -196.195
  H      271.867     -10.233    -196.044
  H      271.703     -11.123    -194.506
  P      271.345     -12.418    -198.239
  C      271.493     -10.337    -199.784
  O      271.048     -10.872    -198.540
  O      270.492     -12.696    -196.899
  O      271.005     -13.377    -199.329
  H      269.616     -13.047    -197.131
  H      271.226      -9.303    -199.843
  H      271.031     -10.871    -200.588
  H      272.556     -10.436    -199.855

 6  7  8  9  10  11  12  13  14  15  26  29  33  34 0
 6-311+G(2d,p)
 ****
 36  38  39  40  41 0
 6-311+G(2d,p)
 ****
 1  2  3  4  5  16  17  18  19  20  21  22  23  24  25 0
 3-21G
 ****
 27  28  30  31  32  35  37  42  43  44  45  46  47 0
 3-21G
 ****
 48  49 0
 3-21G
 ****


