%nproc=1
%NoSave
%Mem=1900MB
#P OB98/GEN NMR

erre ene a

0 1
  C     -272.589     200.280     283.964
  O     -273.278     200.860     285.078
  P     -272.940     200.397     286.579
  C     -275.334     200.149     287.432
  O     -274.123     200.887     287.557
  C     -276.594     201.038     287.451
  O     -276.535     201.992     288.548
  C     -276.835     201.844     286.169
  O     -278.256     201.939     286.019
  C     -276.227     203.197     286.524
  O     -276.699     204.239     285.659
  C     -276.630     203.321     287.993
  N     -275.793     204.273     288.708
  C     -275.899     205.623     288.358
  O     -276.636     205.956     287.423
  N     -275.137     206.544     289.023
  C     -274.271     206.157     289.897
  N     -273.522     207.119     290.515
  C     -274.058     204.726     290.258
  C     -274.855     203.856     289.641
  O     -271.561     200.753     287.050
  O     -273.130     198.800     286.537
  H     -277.655     204.347     285.812
  H     -272.529     198.392     287.184
  H     -273.307     204.451     290.986
  H     -274.783     202.800     289.834
  H     -277.671     203.647     288.089
  H     -275.138     203.146     286.424
  H     -276.382     201.389     285.282
  H     -277.458     200.388     287.653
  H     -273.676     208.083     290.221
  H     -275.396     199.427     288.257
  H     -272.752     206.916     291.131
  H     -275.318     199.566     286.504
  P     -279.134     200.749     285.416
  C     -280.377     202.338     283.839
  O     -280.495     201.401     284.885
  O     -279.321     199.574     286.325
  O     -278.376     200.325     284.069
  H     -278.674     199.441     283.791
  H     -281.366     202.547     283.423
  H     -279.733     201.953     283.040
  H     -279.940     203.275     284.224
  H     -272.951     200.715     283.056
  H     -272.762     199.224     283.948
  H     -271.540     200.468     284.056

 3  4  5  6  7  8  9  10  11  12  13  23  27  28  29  30  32 0
 6-311+G(2d,p)
 ****
 34  35 0
 6-311+G(2d,p)
 ****
 1  2  14  15  16  17  18  19  20  21  22  24  25  26 0
 3-21G
 ****
 31  33  36  37  38  39  40  41  42  43  44  45  46 0
 3-21G
 ****


