%nproc=1
%NoSave
%Mem=1900MB
#P OB98/GEN NMR

erre ene a

0 1
  C     -255.715     463.298    -513.190
  O     -254.940     462.202    -513.688
  P     -253.998     461.440    -512.628
  C     -254.038     459.208    -513.964
  O     -253.252     460.257    -513.411
  C     -253.463     458.749    -515.304
  O     -253.611     459.769    -516.309
  C     -251.972     458.440    -515.270
  O     -251.714     457.157    -514.719
  C     -251.630     458.473    -516.753
  O     -251.960     457.212    -517.358
  C     -252.558     459.580    -517.282
  N     -250.526     462.747    -520.675
  C     -251.129     461.522    -520.861
  N     -251.238     461.093    -522.141
  N     -251.597     460.789    -519.887
  C     -251.449     461.357    -518.665
  C     -250.862     462.563    -518.355
  C     -250.330     463.354    -519.441
  O     -249.752     464.433    -519.328
  N     -250.913     462.810    -517.008
  C     -251.545     461.768    -516.505
  N     -251.881     460.852    -517.473
  O     -255.056     460.662    -511.705
  O     -253.125     462.349    -511.832
  H     -251.333     456.549    -516.998
  H     -254.681     460.521    -510.816
  H     -250.180     463.272    -521.462
  H     -251.788     461.632    -515.461
  H     -253.034     459.298    -518.225
  H     -250.567     458.646    -516.939
  H     -250.967     461.641    -522.944
  H     -251.421     459.230    -514.744
  H     -251.710     460.212    -522.296
  H     -254.019     457.860    -515.626
  H     -255.065     459.550    -514.109
  H     -254.076     458.381    -513.250
  P     -251.110     457.105    -513.234
  C     -252.014     454.673    -513.362
  O     -251.018     455.549    -512.870
  O     -252.319     457.646    -512.336
  O     -249.865     457.901    -513.043
  H     -251.975     458.071    -511.530
  H     -252.244     454.889    -514.409
  H     -252.923     454.770    -512.759
  H     -251.648     453.647    -513.292
  H     -256.294     463.717    -513.987
  H     -255.061     464.046    -512.793
  H     -256.369     462.950    -512.418

 3  4  5  6  7  8  9  10  11  12  23  26  30  31  33  0
 6-311+G(2d,p)
 ****
 35  36  37  38 0
 6-311+G(2d,p)
 ****
 1  2  13  14  15  16  17  18  19  20  21  22  24  25  27  28  29 0
 3-21G
 ****
 32  34  39  40  41  42  43  44  45  46  47  48  49 0
 3-21G
 ****


