%nproc=1
%NoSave
%Mem=1900MB
#P OB98/GEN NMR

erre ene a

0 1
  C       -6.404     603.763    -388.483
  O       -5.418     603.485    -387.507
  H       -6.510     602.888    -389.131
  H       -6.095     604.616    -389.092
  H       -7.365     603.974    -388.005
  P       -5.222     604.573    -386.346
  C       -7.235     603.597    -384.973
  O       -6.634     604.724    -385.593
  C       -6.895     603.576    -383.484
  O       -7.231     604.831    -382.853
  C       -7.682     602.550    -382.683
  O       -7.280     601.225    -382.944
  C       -7.381     603.021    -381.267
  O       -6.081     602.579    -380.844
  C       -7.413     604.557    -381.440
  N       -8.643     605.151    -380.930
  C       -8.720     605.288    -379.536
  O       -7.786     604.930    -378.824
  N       -9.869     605.805    -378.995
  C      -10.844     606.171    -379.761
  N      -11.956     606.668    -379.163
  C      -10.791     606.069    -381.233
  C       -9.673     605.548    -381.744
  O       -5.108     605.939    -387.166
  O       -4.083     604.314    -385.413
  H       -6.066     601.610    -380.970
  H       -5.848     606.089    -387.777
  H      -11.624     606.394    -381.842
  H       -9.558     605.436    -382.816
  H       -6.567     605.024    -380.913
  H       -8.098     602.624    -380.540
  H       -8.758     602.680    -382.855
  H       -5.810     603.422    -383.381
  H      -11.965     606.706    -378.145
  H       -6.915     602.666    -385.453
  H      -12.789     606.953    -379.656
  H       -8.320     603.678    -385.108
  P       -8.361     600.039    -382.988
  C       -8.825     600.165    -385.519
  O       -9.351     600.376    -384.206
  O       -9.043     599.757    -381.694
  O       -7.522     598.803    -383.562
  H       -7.138     598.946    -384.447
  H       -9.567     600.421    -386.246
  H       -8.553     599.136    -385.633
  H       -7.961     600.780    -385.660

 6  7  8  9  10  11  12  13  14  15  16  26  30  31  32  33  35 0
 6-311+G(2d,p)
 ****
 37  38 0
 6-311+G(2d,p)
 ****
 1  2  3  4  5  17  18  19  20  21  22  23  24  25 0
 3-21G
 ****
 27  28  29  34  36  39  40  41  42  43  44  45  46 0
 3-21G
 ****


