%nproc=1
%NoSave
%Mem=1900MB
#P OB98/GEN NMR

erre ene a

0 1
  C      707.991    1156.021     333.659
  O      708.910    1156.203     334.715
  H      708.491    1156.246     332.714
  H      707.146    1156.700     333.778
  H      707.631    1154.988     333.631
  P      708.465    1155.703     336.175
  C      710.659    1154.310     336.295
  O      709.245    1154.325     336.440
  C      711.221    1152.983     336.796
  O      710.977    1152.891     338.228
  C      710.587    1151.744     336.144
  O      711.597    1150.746     335.995
  C      709.582    1151.282     337.183
  O      709.234    1149.910     337.078
  C      710.327    1151.618     338.478
  N      709.438    1151.706     339.636
  C      709.507    1150.670     340.563
  O      710.320    1149.747     340.529
  N      708.588    1150.731     341.579
  C      707.620    1151.681     341.733
  O      706.803    1151.665     342.652
  C      707.591    1152.737     340.711
  C      708.485    1152.697     339.725
  O      706.950    1155.237     335.942
  O      708.597    1156.713     337.266
  H      706.340    1155.980     336.093
  H      708.648    1149.698     337.837
  H      708.628    1149.990     342.262
  H      706.824    1153.499     340.799
  H      708.478    1153.449     338.936
  H      711.117    1150.884     338.667
  H      708.664    1151.877     337.101
  H      710.118    1151.942     335.172
  H      712.305    1152.982     336.657
  H      711.090    1155.126     336.882
  H      710.911    1154.453     335.235
  P      711.338    1149.596     334.904
  C      713.209    1150.700     333.426
  O      711.885    1150.196     333.515
  O      709.752    1149.645     334.763
  O      711.901    1148.267     335.305
  H      709.389    1150.547     334.850
  H      713.390    1151.053     332.432
  H      713.904    1149.921     333.660
  H      713.331    1151.506     334.119

 6  7  8  9  10  11  12  13  14  15  16  27  31  32  33  34  35 0
 6-311+G(2d,p)
 ****
 36  37 0
 6-311+G(2d,p)
 ****
 1  2  3  4  5  17  18  19  20  21  22  23  24  25 0
 3-21G
 ****
 26  28  29  30  38  39  40  41  42  43  44  45 0
 3-21G
 ****


