%nproc=1
%NoSave
%Mem=1900MB
#P OB98/GEN NMR

erre ene a

0 1
  C     1066.207     374.668     -10.344
  O     1066.690     375.226      -9.139
  P     1067.599     376.560      -9.258
  C     1069.524     375.277      -8.074
  O     1069.127     376.047      -9.190
  C     1071.010     374.908      -8.195
  O     1071.192     373.868      -9.159
  C     1071.888     376.050      -8.655
  O     1072.135     376.968      -7.606
  C     1073.133     375.317      -9.122
  O     1074.042     375.067      -8.050
  C     1072.545     373.981      -9.672
  N     1072.595     373.894     -11.115
  C     1073.849     373.639     -11.663
  O     1074.843     373.549     -10.948
  N     1073.958     373.555     -13.033
  C     1072.906     373.695     -13.778
  N     1073.060     373.590     -15.124
  C     1071.533     373.976     -13.233
  C     1071.469     374.039     -11.898
  O     1067.378     377.268      -7.848
  O     1067.250     377.438     -10.409
  H     1074.899     374.825      -8.463
  H     1067.507     378.234      -7.908
  H     1070.707     374.089     -13.897
  H     1070.525     374.250     -11.414
  H     1073.093     373.117      -9.243
  H     1073.684     375.885      -9.899
  H     1071.433     376.587      -9.508
  H     1071.348     374.544      -7.210
  H     1073.992     373.426     -15.466
  H     1068.945     374.346      -8.035
  H     1072.297     373.669     -15.790
  H     1069.331     375.849      -7.147
  P     1072.597     378.459      -7.981
  C     1074.695     378.075      -6.541
  O     1074.189     378.464      -7.809
  O     1072.114     379.294      -6.694
  O     1072.060     379.016      -9.248
  H     1072.229     380.255      -6.858
  H     1075.765     377.972      -6.594
  H     1074.257     377.116      -6.232
  H     1074.454     378.844      -5.795
  H     1065.625     373.797     -10.126
  H     1067.033     374.398     -10.968
  H     1065.597     375.387     -10.851

 3  4  5  6  7  8  9  10  11  12  13  21  23  27  28  29  30  32 0
 6-311+G(2d,p)
 ****
 34  35 0
 6-311+G(2d,p)
 ****
 1  2  14  15  16  17  18  19  20  22  24  25  26 0
 3-21G
 ****
 31  33  36  37  38  39  40  41  42  43  44  45  46 0
 3-21G
 ****


