%nproc=1
%NoSave
%Mem=1900MB
#P OB98/GEN NMR

erre ene a

0 1
  C      -40.597      40.401     -18.580
  O      -39.549      40.923     -19.372
  H      -40.992      41.201     -17.949
  H      -40.224      39.597     -17.939
  H      -41.399      40.024     -19.220
  P      -38.756      39.872     -20.293
  C      -36.661      40.644     -18.944
  O      -37.427      39.558     -19.444
  C      -36.288      40.392     -17.488
  O      -37.465      40.086     -16.706
  C      -35.345      39.212     -17.271
  O      -33.995      39.506     -17.584
  C      -35.543      38.990     -15.782
  O      -34.853      40.015     -15.044
  C      -37.074      39.151     -15.664
  N      -37.796      37.884     -15.812
  C      -37.453      36.858     -14.923
  O      -36.584      37.030     -14.071
  N      -38.080      35.642     -15.046
  C      -38.986      35.468     -15.958
  N      -39.570      34.242     -16.031
  C      -39.387      36.524     -16.904
  C      -38.761      37.691     -16.777
  O      -38.202      40.774     -21.492
  O      -39.524      38.669     -20.725
  H      -33.905      39.914     -15.249
  H      -37.571      40.250     -22.044
  H      -40.138      36.329     -17.656
  H      -39.004      38.516     -17.438
  H      -37.349      39.598     -14.701
  H      -35.158      38.033     -15.432
  H      -35.685      38.321     -17.809
  H      -35.862      41.319     -17.087
  H      -39.230      33.521     -15.407
  H      -37.263      41.556     -19.026
  H      -40.171      33.965     -16.796
  H      -35.750      40.765     -19.536
  P      -33.255      38.538     -18.631
  C      -31.526      37.906     -16.791
  O      -32.449      37.453     -17.773
  O      -32.101      39.466     -19.232
  O      -34.139      37.978     -19.702
  H      -31.935      39.253     -20.171
  H      -31.074      37.063     -16.310
  H      -32.041      38.498     -16.064
  H      -30.768      38.498     -17.260

 6  7  8  9  10  11  12  13  14  15  16  26  30  31  32  33  35 0
 6-311+G(2d,p)
 ****
 37  38 0
 6-311+G(2d,p)
 ****
 1  2  3  4  5  17  18  19  20  21  22  23  24  25 0
 3-21G
 ****
 27  28  29  34  36  39  40  41  42  43  44  45  46 0
 3-21G
 ****


