%nproc=1
%NoSave
%Mem=1900MB
#P OB98/GEN NMR

erre ene a

0 1
  C      555.889    -898.971    -983.473
  O      556.974    -898.791    -984.392
  P      557.554    -897.301    -984.540
  C      559.817    -897.881    -983.368
  O      558.642    -897.061    -983.352
  C      561.092    -897.031    -983.270
  O      561.171    -896.151    -984.433
  C      561.164    -896.121    -982.036
  O      562.524    -896.101    -981.586
  C      560.814    -894.761    -982.578
  O      561.317    -893.711    -981.745
  C      561.460    -894.831    -983.960
  N      562.611    -890.681    -986.650
  C      563.423    -891.551    -985.935
  N      564.737    -891.201    -985.906
  N      562.997    -892.591    -985.289
  C      561.678    -892.811    -985.445
  C      560.742    -892.081    -986.143
  C      561.233    -890.871    -986.811
  O      560.542    -890.061    -987.424
  N      559.482    -892.601    -986.047
  C      559.633    -893.681    -985.283
  N      560.964    -893.851    -984.897
  O      556.332    -896.371    -984.093
  O      558.026    -896.961    -985.905
  H      560.965    -893.851    -980.842
  H      556.095    -895.751    -984.795
  H      562.969    -889.881    -987.106
  H      558.852    -894.351    -984.995
  H      562.541    -894.711    -983.909
  H      559.737    -894.651    -982.615
  H      565.135    -890.441    -986.407
  H      560.521    -896.441    -981.212
  H      565.374    -891.841    -985.393
  H      561.952    -897.701    -983.327
  H      559.836    -898.471    -984.298
  H      559.769    -898.581    -982.538
  P      562.831    -896.601    -980.115
  C      565.117    -897.691    -980.749
  O      563.789    -897.891    -980.272
  O      561.432    -897.271    -979.656
  O      563.298    -895.571    -979.149
  H      561.352    -897.241    -978.680
  H      565.378    -896.641    -980.778
  H      565.201    -898.091    -981.770
  H      565.821    -898.241    -980.098
  H      555.595    -900.000    -983.465
  H      555.061    -898.366    -983.776
  H      556.201    -898.682    -982.491

 3  4  5  6  7  8  9  10  11  12  23  26  30  31  33  0
 6-311+G(2d,p)
 ****
 35  36  37  38 0
 6-311+G(2d,p)
 ****
 1  2  13  14  15  16  17  18  19  20  21  22  24  25  27  28  29 0
 3-21G
 ****
 32  34  39  40  41  42  43  44  45  46  47  48  49 0
 3-21G
 ****


