%nproc=1
%NoSave
%Mem=1900MB
#P OB98/GEN NMR

erre ene a

0 1
  C      131.666    -627.480     205.466
  O      131.857    -628.161     204.241
  H      130.942    -626.673     205.334
  H      131.273    -628.187     206.203
  H      132.615    -627.082     205.830
  P      132.417    -627.279     203.017
  C      133.960    -629.170     202.141
  O      132.864    -628.312     201.862
  C      134.108    -630.207     201.048
  O      132.943    -631.076     201.069
  C      134.232    -629.622     199.622
  O      135.357    -630.182     198.929
  C      132.956    -630.063     198.926
  O      133.143    -630.326     197.540
  C      132.571    -631.311     199.702
  N      128.953    -633.184     196.625
  C      130.287    -633.352     196.640
  N      131.196    -632.906     197.537
  C      130.568    -632.252     198.528
  C      129.219    -632.011     198.680
  C      128.387    -632.495     197.644
  N      127.031    -632.264     197.616
  N      128.953    -631.274     199.827
  C      130.138    -631.044     200.340
  N      131.153    -631.598     199.599
  O      133.810    -626.717     203.579
  O      131.514    -626.179     202.586
  H      133.526    -629.522     197.138
  H      133.766    -625.741     203.599
  H      130.703    -633.913     195.802
  H      130.336    -630.454     201.230
  H      133.127    -632.193     199.354
  H      132.187    -629.275     199.024
  H      134.322    -628.523     199.635
  H      134.979    -630.844     201.265
  H      133.785    -629.677     203.102
  H      126.525    -632.545     196.776
  H      126.608    -631.662     198.298
  H      134.872    -628.563     202.226
  P      136.366    -629.133     198.251
  C      138.497    -630.601     198.504
  O      137.582    -629.966     197.617
  O      137.020    -628.388     199.512
  O      135.701    -628.157     197.326
  H      136.877    -627.422     199.438
  H      139.246    -631.113     197.937
  H      137.971    -631.303     199.116
  H      138.962    -629.864     199.125

 6  7  8  9  10  11  12  13  14  15  25  28  32  33  34  35 0
 6-311+G(2d,p)
 ****
 36  39  40 0
 6-311+G(2d,p)
 ****
 1  2  3  4  5  16  17  18  19  20  21  22  23  24 0
 3-21G
 ****
 26  27  29  30  31  37  38  41  42  43  44  45  46  47  48 0
 3-21G
 ****


