%nproc=1
%NoSave
%Mem=1900MB
#P OB98/GEN NMR

erre ene a

0 1
  C     1376.769    -680.865    -306.371
  O     1376.242    -679.591    -306.018
  H     1376.578    -681.556    -305.550
  H     1377.842    -680.798    -306.530
  H     1376.282    -681.233    -307.278
  P     1376.402    -678.386    -307.066
  C     1374.930    -676.401    -307.826
  O     1375.030    -677.554    -306.991
  C     1373.602    -675.690    -307.576
  O     1372.495    -676.582    -307.812
  C     1373.433    -675.164    -306.139
  O     1374.126    -673.939    -305.986
  C     1371.933    -675.033    -306.073
  O     1371.508    -673.839    -306.789
  C     1371.469    -676.290    -306.838
  N     1369.060    -678.182    -302.775
  C     1369.058    -676.904    -303.305
  N     1368.348    -675.986    -302.611
  N     1369.708    -676.556    -304.379
  C     1370.450    -677.551    -304.923
  C     1370.540    -678.857    -304.482
  C     1369.784    -679.251    -303.327
  O     1369.745    -680.385    -302.841
  N     1371.439    -679.573    -305.249
  C     1371.833    -678.700    -306.163
  N     1371.274    -677.469    -305.989
  O     1376.804    -678.773    -308.461
  O     1377.467    -677.408    -306.380
  H     1370.534    -673.899    -306.849
  H     1378.378    -677.623    -306.670
  H     1368.569    -678.396    -301.931
  H     1372.544    -678.940    -306.974
  H     1370.532    -676.132    -307.380
  H     1371.544    -674.956    -305.057
  H     1368.071    -676.127    -301.655
  H     1373.759    -675.909    -305.400
  H     1368.355    -675.030    -302.949
  H     1373.519    -674.872    -308.295
  H     1374.997    -676.734    -308.867
  H     1375.752    -675.714    -307.614
  P     1374.519    -673.389    -304.530
  C     1376.365    -671.793    -303.645
  O     1375.698    -672.312    -304.791
  O     1374.877    -674.470    -303.534
  O     1373.298    -672.469    -304.083
  H     1372.591    -672.965    -303.609
  H     1377.116    -671.097    -303.954
  H     1376.823    -672.595    -303.105
  H     1375.657    -671.297    -303.014

 6  7  8  9  10  11  12  13  14  15  26  29  33  34 0
 6-311+G(2d,p)
 ****
 36  38  39  40  41 0
 6-311+G(2d,p)
 ****
 1  2  3  4  5  16  17  18  19  20  21  22  23  24  25 0
 3-21G
 ****
 27  28  30  31  32  35  37  42  43  44  45  46  47 0
 3-21G
 ****
 48  49 0
 3-21G
 ****


