%nproc=1
%NoSave
%Mem=1900MB
#P OB98/GEN NMR

erre ene a

0 1
  C     -374.964    -466.131     236.768
  O     -374.531    -467.426     237.197
  P     -373.629    -467.513     238.518
  C     -371.253    -467.078     237.551
  O     -372.328    -466.578     238.316
  C     -370.395    -465.951     236.951
  O     -369.757    -465.183     238.017
  C     -369.272    -466.436     236.032
  O     -369.029    -465.434     235.050
  C     -368.081    -466.503     236.974
  O     -366.843    -466.525     236.255
  C     -368.331    -465.251     237.822
  N     -363.905    -464.480     240.116
  C     -364.254    -464.364     238.783
  N     -363.279    -463.959     237.933
  N     -365.442    -464.640     238.311
  C     -366.316    -465.005     239.288
  C     -366.102    -465.157     240.628
  C     -364.775    -464.894     241.132
  O     -364.397    -464.991     242.288
  N     -367.230    -465.583     241.288
  C     -368.137    -465.662     240.333
  N     -367.649    -465.315     239.117
  O     -373.024    -469.009     238.449
  O     -374.382    -467.301     239.789
  H     -366.139    -466.269     236.893
  H     -373.442    -469.567     239.114
  H     -362.968    -464.284     240.411
  H     -369.164    -466.004     240.467
  H     -368.016    -464.342     237.321
  H     -368.131    -467.411     237.586
  H     -362.352    -463.684     238.236
  H     -369.468    -467.392     235.534
  H     -363.522    -463.837     236.954
  H     -371.063    -465.257     236.419
  H     -371.638    -467.708     236.721
  H     -370.653    -467.752     238.167
  P     -369.554    -465.728     233.571
  C     -367.706    -467.289     232.619
  O     -369.014    -467.185     233.173
  O     -368.661    -464.732     232.654
  O     -371.005    -465.498     233.375
  H     -369.133    -464.525     231.827
  H     -367.018    -467.673     233.397
  H     -367.350    -466.337     232.249
  H     -367.749    -468.020     231.796
  H     -375.553    -466.228     235.880
  H     -374.110    -465.519     236.565
  H     -375.552    -465.678     237.539

 3  4  5  6  7  8  9  10  11  12  23  26  30  31 0
 6-311+G(2d,p)
 ****
 33  35  36  37  38 0
 6-311+G(2d,p)
 ****
 1  2  13  14  15  16  17  18  19  20  21  22  24  25 0
 3-21G
 ****
 27  28  29  32  34  39  40  41  42  43  44  45  46  47  48  49 0
 3-21G
 ****


