%nproc=1
%NoSave
%Mem=1900MB
#P OB98/GEN NMR

erre ene a

0 1
  C       77.796     231.604      75.064
  O       77.434     232.057      73.770
  P       77.093     231.027      72.584
  C       78.580     229.922      70.779
  O       78.514     230.476      72.080
  C       79.988     229.395      70.494
  O       80.255     228.284      71.388
  C       80.200     228.892      69.059
  O       81.550     229.206      68.697
  C       80.015     227.394      69.191
  O       80.628     226.673      68.136
  C       80.624     227.148      70.575
  N       80.168     225.901      71.175
  C       80.894     224.745      70.899
  O       81.875     224.773      70.155
  N       80.496     223.562      71.477
  C       79.416     223.525      72.195
  N       79.096     222.345      72.795
  C       78.557     224.705      72.420
  C       79.003     225.848      71.906
  O       76.222     231.576      71.509
  O       76.488     229.752      73.330
  H       80.706     225.740      68.406
  H       75.519     229.832      73.508
  H       77.653     224.617      73.004
  H       78.452     226.768      72.044
  H       81.720     227.151      70.512
  H       78.944     227.159      69.184
  H       79.516     229.361      68.345
  H       80.708     230.186      70.734
  H       79.797     221.613      72.757
  H       78.348     230.708      70.056
  H       78.483     222.319      73.600
  H       77.833     229.125      70.675
  P       81.843     229.675      67.188
  C       82.045     228.520      64.875
  O       81.959     228.366      66.275
  O       83.377     230.148      67.289
  O       81.004     230.795      66.664
  H       83.554     230.804      66.590
  H       82.124     227.527      64.416
  H       82.932     229.098      64.604
  H       81.149     229.012      64.487
  H       77.980     232.446      75.698
  H       78.681     231.007      74.998
  H       77.000     231.017      75.472

 3  4  5  6  7  8  9  10  11  12  13  23  27  28  29  30  32 0
 6-311+G(2d,p)
 ****
 34  35 0
 6-311+G(2d,p)
 ****
 1  2  14  15  16  17  18  19  20  21  22  24  25  26 0
 3-21G
 ****
 31  33  36  37  38  39  40  41  42  43  44  45  46 0
 3-21G
 ****


