%nproc=1
%NoSave
%Mem=1900MB
#P OB98/GEN NMR

erre ene a

0 1
  C      186.033    -756.445    -267.723
  O      187.406    -756.688    -267.501
  H      185.456    -757.244    -267.248
  H      185.809    -756.440    -268.793
  H      185.738    -755.492    -267.277
  P      188.475    -755.715    -268.194
  C      187.765    -753.494    -269.313
  O      187.872    -754.230    -268.105
  C      187.903    -751.989    -269.051
  O      186.713    -751.523    -268.353
  C      189.114    -751.621    -268.174
  O      189.538    -750.310    -268.559
  C      188.488    -751.597    -266.791
  O      189.327    -750.961    -265.857
  C      187.146    -750.927    -267.111
  N      186.168    -751.108    -266.050
  C      185.873    -749.977    -265.281
  O      186.440    -748.909    -265.511
  N      184.970    -750.093    -264.256
  C      184.456    -751.247    -263.975
  N      183.579    -751.296    -262.936
  C      184.785    -752.479    -264.721
  C      185.634    -752.337    -265.741
  O      188.935    -756.123    -269.555
  O      189.694    -755.674    -267.156
  H      188.863    -750.828    -265.002
  H      190.430    -756.216    -267.492
  H      184.349    -753.425    -264.438
  H      185.936    -753.186    -266.346
  H      187.278    -749.853    -267.287
  H      188.325    -752.615    -266.424
  H      189.939    -752.330    -268.270
  H      187.935    -751.463    -270.011
  H      183.391    -750.429    -262.444
  H      186.782    -753.710    -269.745
  H      183.135    -752.143    -262.615
  H      188.536    -753.813    -270.022
  P      190.999    -750.009    -269.153
  C      192.177    -751.560    -270.848
  O      191.117    -750.639    -270.624
  O      192.120    -750.390    -268.237
  O      191.017    -748.428    -269.426
  H      191.926    -748.094    -269.310
  H      192.143    -751.903    -271.861
  H      192.071    -752.394    -270.186
  H      193.114    -751.077    -270.666

 6  7  8  9  10  11  12  13  14  15  16  26  30  31  32  33  35 0
 6-311+G(2d,p)
 ****
 37  38 0
 6-311+G(2d,p)
 ****
 1  2  3  4  5  17  18  19  20  21  22  23  24  25 0
 3-21G
 ****
 27  28  29  34  36  39  40  41  42  43  44  45  46 0
 3-21G
 ****


