%nproc=1
%NoSave
%Mem=1900MB
#P OB98/GEN NMR

erre ene a

0 1
  C     -296.369    -170.043    -514.608
  O     -296.454    -168.689    -515.006
  H     -296.658    -170.672    -515.451
  H     -297.047    -170.236    -513.773
  H     -295.341    -170.280    -514.319
  P     -296.106    -167.586    -513.891
  C     -297.906    -166.001    -514.839
  O     -296.516    -166.189    -514.573
  C     -298.096    -164.923    -515.914
  O     -297.976    -165.543    -517.217
  C     -299.461    -164.234    -515.844
  O     -299.303    -162.848    -516.152
  C     -300.256    -164.914    -516.944
  O     -301.307    -164.084    -517.448
  C     -299.166    -165.229    -517.973
  N     -300.096    -166.637    -522.782
  C     -299.622    -165.492    -522.254
  N     -299.385    -165.202    -520.953
  C     -299.649    -166.275    -520.179
  C     -300.143    -167.501    -520.574
  C     -300.376    -167.674    -521.956
  N     -300.883    -168.829    -522.501
  N     -300.325    -168.328    -519.479
  C     -299.936    -167.606    -518.443
  N     -299.538    -166.350    -518.815
  O     -294.724    -167.645    -513.335
  O     -297.282    -167.814    -512.832
  H     -302.076    -164.176    -516.848
  H     -298.145    -167.923    -513.277
  H     -299.408    -164.695    -522.963
  H     -299.935    -167.940    -517.409
  H     -298.944    -164.382    -518.634
  H     -300.706    -165.836    -516.562
  H     -299.939    -164.348    -514.873
  H     -297.279    -164.194    -515.836
  H     -298.430    -165.699    -513.928
  H     -301.009    -168.868    -523.498
  H     -301.079    -169.616    -521.897
  H     -298.313    -166.952    -515.181
  P     -300.388    -161.816    -515.582
  C     -300.794    -160.893    -517.963
  O     -300.504    -160.571    -516.606
  O     -300.245    -161.448    -514.143
  O     -301.771    -162.592    -515.839
  H     -302.376    -162.411    -515.092
  H     -300.846    -159.993    -518.540
  H     -301.732    -161.405    -518.015
  H     -300.022    -161.523    -518.353

 6  7  8  9  10  11  12  13  14  15  25  28  32  33  34  35 0
 6-311+G(2d,p)
 ****
 36  39  40 0
 6-311+G(2d,p)
 ****
 1  2  3  4  5  16  17  18  19  20  21  22  23  24 0
 3-21G
 ****
 26  27  29  30  31  37  38  41  42  43  44  45  46  47 0
 3-21G
 ****
 48 0
 3-21G
 ****


