%nproc=1
%NoSave
%Mem=1900MB
#P OB98/GEN NMR

erre ene a

0 1
  C      418.797     138.806     425.001
  O      417.855     137.814     425.338
  H      419.491     138.393     424.267
  H      419.359     139.097     425.893
  H      418.315     139.687     424.570
  P      416.477     138.260     426.022
  C      414.999     137.853     423.944
  O      415.279     137.478     425.290
  C      413.501     137.766     423.638
  O      413.055     136.399     423.775
  C      412.656     138.608     424.598
  O      412.493     139.962     424.207
  C      411.320     137.868     424.568
  O      410.478     138.345     423.507
  C      411.728     136.411     424.319
  N      409.391     132.639     426.856
  C      408.994     133.281     425.697
  N      407.805     132.890     425.183
  N      409.689     134.223     425.124
  C      410.799     134.580     425.812
  C      411.283     134.029     426.975
  C      410.546     132.928     427.566
  O      410.863     132.320     428.582
  N      412.419     134.673     427.405
  C      412.570     135.663     426.546
  N      411.658     135.596     425.519
  O      416.274     139.764     425.502
  O      416.455     138.214     427.520
  H      409.642     137.843     423.540
  H      415.802     140.282     426.178
  H      408.825     131.900     427.237
  H      413.345     136.421     426.593
  H      411.072     135.938     423.573
  H      410.770     138.023     425.503
  H      407.190     132.228     425.626
  H      413.056     138.553     425.611
  H      407.391     133.460     424.444
  H      413.332     138.056     422.592
  H      415.550     137.161     423.308
  H      415.374     138.858     423.746
  P      412.327     141.116     425.300
  C      414.754     142.058     424.959
  O      413.362     142.282     424.963
  O      412.934     140.455     426.619
  O      410.930     141.606     425.509
  H      412.222     140.107     427.194
  H      415.261     142.967     424.709
  H      414.992     141.306     424.236
  H      415.065     141.731     425.929

 6  7  8  9  10  11  12  13  14  15  26  29  33  34 0
 6-311+G(2d,p)
 ****
 36  38  39  40  41 0
 6-311+G(2d,p)
 ****
 1  2  3  4  5  16  17  18  19  20  21  22  23  24  25 0
 3-21G
 ****
 27  28  30  31  32  35  37  42  43  44  45  46  47 0
 3-21G
 ****
 48  49 0
 3-21G
 ****


