%nproc=1
%NoSave
%Mem=1900MB
#P OB98/GEN NMR

erre ene a

0 1
  C      106.023      75.264    -270.724
  O      104.665      75.533    -270.445
  H      106.640      75.754    -269.966
  H      106.291      75.661    -271.706
  H      106.212      74.188    -270.691
  P      103.572      74.883    -271.429
  C      104.038      76.386    -273.502
  O      104.164      75.099    -272.909
  C      105.161      76.618    -274.518
  O      106.412      76.785    -273.811
  C      105.330      75.459    -275.507
  O      105.534      75.988    -276.819
  C      106.571      74.736    -275.019
  O      107.237      74.033    -276.068
  C      107.376      75.875    -274.377
  N      108.299      75.378    -273.358
  C      109.400      76.187    -273.051
  O      109.564      77.257    -273.646
  N      110.314      75.747    -272.129
  C      110.176      74.572    -271.599
  N      111.126      74.184    -270.707
  C      109.058      73.663    -271.925
  C      108.163      74.126    -272.796
  O      102.357      75.921    -271.351
  O      103.190      73.474    -271.111
  H      107.640      74.696    -276.668
  H      101.534      75.542    -271.740
  H      108.995      72.685    -271.469
  H      107.309      73.527    -273.096
  H      107.951      76.419    -275.136
  H      106.291      74.004    -274.255
  H      104.474      74.789    -275.527
  H      104.966      77.561    -275.042
  H      111.885      74.829    -270.516
  H      104.090      77.146    -272.718
  H      111.136      73.280    -270.255
  H      103.069      76.455    -274.009
  P      104.385      75.665    -277.895
  C      104.677      73.100    -277.638
  O      103.794      74.209    -277.548
  O      105.196      75.437    -279.254
  O      103.357      76.742    -278.014
  H      105.168      76.239    -279.805
  H      104.151      72.204    -277.381
  H      105.495      73.240    -276.962
  H      105.050      73.021    -278.638

 6  7  8  9  10  11  12  13  14  15  16  26  30  31  32  33  35 0
 6-311+G(2d,p)
 ****
 37  38 0
 6-311+G(2d,p)
 ****
 1  2  3  4  5  17  18  19  20  21  22  23  24  25 0
 3-21G
 ****
 27  28  29  34  36  39  40  41  42  43  44  45  46 0
 3-21G
 ****


