%nproc=1
%NoSave
%Mem=1900MB
#P OB98/GEN NMR

erre ene a

0 1
  C       37.935     -48.161     -96.457
  O       38.641     -47.662     -97.576
  H       38.355     -49.133     -96.186
  H       36.876     -48.286     -96.699
  H       38.047     -47.479     -95.610
  P       38.153     -46.249     -98.159
  C       37.915     -47.074    -100.588
  O       37.234     -46.634     -99.419
  C       37.306     -46.432    -101.835
  O       35.913     -46.824    -101.921
  C       37.360     -44.903    -101.820
  O       37.628     -44.430    -103.138
  C       35.953     -44.502    -101.412
  O       35.605     -43.198    -101.871
  C       35.120     -45.629    -102.019
  N       30.397     -43.773    -101.500
  C       31.388     -43.488    -102.369
  N       32.616     -44.045    -102.448
  C       32.755     -45.021    -101.533
  C       31.835     -45.420    -100.579
  C       30.604     -44.743    -100.577
  N       29.597     -45.009     -99.678
  N       32.364     -46.423     -99.790
  C       33.575     -46.634    -100.269
  N       33.862     -45.797    -101.312
  O       39.231     -45.255     -98.435
  O       37.072     -45.803     -97.068
  H       35.641     -43.197    -102.850
  H       36.493     -46.545     -96.814
  H       31.172     -42.708    -103.093
  H       34.282     -47.364     -99.888
  H       34.879     -45.453    -103.075
  H       35.872     -44.506    -100.318
  H       38.109     -44.518    -101.128
  H       37.805     -46.840    -102.721
  H       37.855     -48.165    -100.672
  H       28.739     -44.487     -99.757
  H       29.725     -45.741     -98.994
  H       38.967     -46.791    -100.491
  P       39.084     -43.837    -103.455
  C       38.648     -41.293    -103.453
  O       39.213     -42.399    -102.755
  O       39.518     -43.900    -104.881
  O       40.032     -44.747    -102.534
  H       40.867     -44.920    -103.013
  H       38.799     -40.398    -102.886
  H       37.599     -41.456    -103.590
  H       39.121     -41.194    -104.408

 6  7  8  9  10  11  12  13  14  15  25  28  32  33  34  35 0
 6-311+G(2d,p)
 ****
 36  39  40 0
 6-311+G(2d,p)
 ****
 1  2  3  4  5  16  17  18  19  20  21  22  23  24 0
 3-21G
 ****
 26  27  29  30  31  37  38  41  42  43  44  45  46  47 0
 3-21G
 ****
 48 0
 3-21G
 ****


