%nproc=1
%NoSave
%Mem=1900MB
#P OB98/GEN NMR

erre ene a

0 1
  C      182.274     488.795      45.371
  O      183.365     489.284      46.126
  H      181.376     489.353      45.648
  H      182.112     487.736      45.586
  H      182.460     488.934      44.303
  P      184.792     488.605      45.850
  C      184.201     486.647      47.452
  O      185.111     487.687      47.125
  C      184.975     485.388      47.836
  O      185.709     484.898      46.690
  C      186.018     485.615      48.921
  O      185.447     485.673      50.217
  C      186.923     484.410      48.714
  O      186.405     483.247      49.371
  C      186.887     484.223      47.191
  N      190.682     483.125      43.961
  C      189.590     482.427      44.342
  N      188.619     482.795      45.201
  C      188.838     484.041      45.658
  C      189.899     484.874      45.356
  C      190.857     484.372      44.461
  N      191.983     485.072      44.091
  N      189.800     486.059      46.058
  C      188.691     485.948      46.761
  N      188.075     484.747      46.551
  O      185.808     489.833      45.999
  O      184.925     487.930      44.528
  H      186.424     483.441      50.328
  H      186.054     490.162      45.115
  H      189.492     481.437      43.906
  H      188.303     486.699      47.435
  H      186.801     483.167      46.906
  H      187.919     484.600      49.107
  H      186.588     486.525      48.709
  H      184.258     484.615      48.139
  H      183.570     486.431      46.583
  H      183.566     486.978      48.280
  H      192.659     484.626      43.497
  H      192.180     485.955      44.544
  P      185.473     487.088      50.975
  C      188.015     486.937      51.546
  O      186.681     487.038      52.028
  O      184.165     487.051      51.893
  O      185.487     488.276      50.074
  H      183.775     487.945      51.952
  H      188.693     486.916      52.374
  H      188.235     487.781      50.927
  H      188.121     486.038      50.975

 6  7  8  9  10  11  12  13  14  15  25  28  32  33  34  35 0
 6-311+G(2d,p)
 ****
 36  37  40 0
 6-311+G(2d,p)
 ****
 1  2  3  4  5  16  17  18  19  20  21  22  23  24 0
 3-21G
 ****
 26  27  29  30  31  38  39 41  42  43  44  45  46  47  48 0
 3-21G
 ****


