%nproc=1
%NoSave
%Mem=1900MB
#P OB98/GEN NMR

erre ene a

0 1
  C     -256.835     724.396     775.135
  O     -257.656     723.389     775.638
  P     -258.323     723.616     777.100
  C     -260.810     723.674     776.245
  O     -259.713     724.395     776.850
  C     -261.822     723.312     777.309
  O     -262.329     724.484     778.001
  C     -263.079     722.598     776.766
  O     -262.789     721.260     776.423
  C     -264.034     722.779     777.941
  O     -263.739     721.807     778.961
  C     -263.668     724.187     778.427
  N     -268.368     726.230     778.743
  C     -267.819     725.205     779.364
  N     -266.571     724.693     779.221
  C     -265.873     725.396     778.306
  C     -266.330     726.473     777.543
  C     -267.630     726.879     777.802
  N     -268.236     727.956     777.130
  N     -265.346     726.919     776.693
  C     -264.326     726.166     776.923
  N     -264.566     725.213     777.892
  O     -257.379     724.760     777.730
  O     -258.411     722.403     777.953
  H     -263.905     720.924     778.571
  H     -257.290     724.640     778.696
  H     -268.425     724.671     780.115
  H     -263.358     726.202     776.435
  H     -263.691     724.279     779.525
  H     -265.084     722.650     777.656
  H     -263.476     723.134     775.866
  H     -261.314     722.645     778.041
  H     -260.419     722.771     775.772
  H     -269.201     728.095     777.258
  H     -267.730     728.366     776.346
  H     -261.266     724.322     775.467
  P     -263.464     720.687     775.057
  C     -261.281     720.522     773.696
  O     -262.489     721.211     773.886
  O     -264.749     721.619     774.915
  O     -263.723     719.206     775.057
  H     -264.525     722.571     775.029
  H     -260.749     720.946     772.850
  H     -261.492     719.474     773.504
  H     -260.656     720.586     774.599
  H     -256.470     724.110     774.171
  H     -256.010     724.548     775.799
  H     -257.395     725.303     775.049

 3  4  5  6  7  8  9  10  11  12  22  25  29  30  31  32 0
 6-311+G(2d,p)
 ****
 33  36  37 0
 6-311+G(2d,p)
 ****
 1  2  13  14  15  16  17  18  19  20  21  23  24  26 0
 3-21G
 ****
 27  28  34  35  38  39  40  41  42  43  44  45  46  47  48 0
 3-21G
 ****


