%nproc=1
%NoSave
%Mem=1900MB
#P OB98/GEN NMR

erre ene a

0 1
  C      -83.390    -131.195      18.466
  O      -83.994    -131.865      19.555
  H      -82.616    -131.839      18.043
  H      -82.927    -130.264      18.807
  H      -84.134    -130.980      17.694
  P      -85.148    -131.068      20.334
  C      -86.880    -131.696      22.159
  O      -85.927    -132.161      21.216
  C      -87.313    -132.830      23.083
  O      -88.182    -133.752      22.387
  C      -86.164    -133.656      23.647
  O      -85.586    -133.027      24.779
  C      -86.875    -134.955      23.995
  O      -87.566    -134.857      25.257
  C      -87.870    -135.098      22.836
  N      -85.965    -139.584      21.524
  C      -86.423    -139.133      22.743
  N      -86.307    -139.991      23.781
  N      -86.939    -137.949      22.934
  C      -86.960    -137.189      21.814
  C      -86.552    -137.527      20.544
  C      -86.012    -138.855      20.342
  O      -85.649    -139.336      19.273
  N      -86.751    -136.493      19.667
  C      -87.242    -135.521      20.411
  N      -87.371    -135.889      21.724
  O      -86.202    -130.714      19.180
  O      -84.703    -129.848      21.064
  H      -86.925    -134.647      25.957
  H      -86.648    -129.876      19.402
  H      -85.595    -140.514      21.436
  H      -87.515    -134.540      20.048
  H      -88.811    -135.559      23.155
  H      -86.174    -135.786      24.088
  H      -85.639    -140.749      23.770
  H      -85.409    -133.850      22.875
  H      -86.621    -139.660      24.685
  H      -87.900    -132.384      23.897
  H      -87.756    -131.316      21.622
  H      -86.440    -130.881      22.744
  P      -84.219    -133.638      25.356
  C      -82.100    -132.645      26.492
  O      -83.327    -132.388      25.822
  O      -83.465    -134.158      24.044
  O      -84.398    -134.718      26.368
  H      -82.757    -134.784      24.292
  H      -81.626    -131.717      26.736
  H      -81.458    -133.217      25.855
  H      -82.292    -133.194      27.390

 6  7  8  9  10  11  12  13  14  15  26  29  33  34 0
 6-311+G(2d,p)
 ****
 36  38  39  40  41 0
 6-311+G(2d,p)
 ****
 1  2  3  4  5  16  17  18  19  20  21  22  23  24  25 0
 3-21G
 ****
 27  28  30  31  32  35  37  42  43  44  45  46  47 0
 3-21G
 ****
 48  49 0
 3-21G
 ****


