%nproc=1
%NoSave
%Mem=1900MB
#P OB98/GEN NMR

erre ene a

0 1
  C     -271.826      20.613    -168.706
  O     -272.379      19.457    -168.110
  H     -271.568      20.412    -169.750
  H     -272.569      21.413    -168.674
  H     -270.936      20.935    -168.158
  P     -271.428      18.167    -168.030
  C     -272.461      17.319    -170.254
  O     -272.147      17.026    -168.900
  C     -273.898      16.911    -170.558
  O     -274.242      17.274    -171.911
  C     -274.172      15.413    -170.453
  O     -274.357      15.004    -169.107
  C     -275.464      15.306    -171.249
  O     -276.574      15.730    -170.437
  C     -275.226      16.317    -172.383
  N     -276.565      14.396    -176.933
  C     -277.282      15.004    -175.964
  N     -276.853      15.507    -174.788
  C     -275.524      15.352    -174.667
  C     -274.655      14.775    -175.575
  C     -275.225      14.273    -176.757
  N     -274.487      13.592    -177.713
  N     -273.361      14.782    -175.091
  C     -273.454      15.338    -173.900
  N     -274.737      15.704    -173.604
  O     -271.625      17.675    -166.516
  O     -269.992      18.415    -168.348
  H     -276.299      16.555    -169.995
  H     -270.893      18.017    -165.971
  H     -278.347      15.093    -176.155
  H     -272.625      15.489    -173.223
  H     -276.133      16.881    -172.631
  H     -275.678      14.287    -171.585
  H     -273.394      14.826    -170.953
  H     -274.559      17.475    -169.887
  H     -271.782      16.768    -170.913
  H     -275.031      12.908    -178.233
  H     -273.567      13.305    -177.405
  H     -272.327      18.392    -170.421
  P     -273.686      13.622    -168.649
  C     -275.865      12.293    -169.075
  O     -274.883      12.685    -168.126
  O     -272.908      14.028    -167.311
  O     -272.765      13.000    -169.643
  H     -271.963      13.791    -167.394
  H     -276.597      11.677    -168.597
  H     -275.398      11.744    -169.866
  H     -276.340      13.163    -169.477

 6  7  8  9  10  11  12  13  14  15  25  28  32  33  34  35 0
 6-311+G(2d,p)
 ****
 36  39  40 0
 6-311+G(2d,p)
 ****
 1  2  3  4  5  16  17  18  19  20  21  22  23  24 0
 3-21G
 ****
 26  27  29  30  31  37  38  41  42  43  44  45  46  47  48 0
 3-21G
 ****


