%nproc=1
%NoSave
%Mem=1900MB
#P OB98/GEN NMR

erre ene a

0 1
  C       46.679     -12.164      27.177
  O       46.072     -13.369      27.585
  H       45.922     -11.375      27.175
  H       47.073     -12.276      26.163
  H       47.487     -11.873      27.854
  P       47.003     -14.564      28.099
  C       47.126     -15.977      25.944
  O       46.614     -15.881      27.267
  C       46.344     -16.984      25.101
  O       46.805     -16.954      23.732
  C       46.542     -18.422      25.581
  O       45.702     -18.826      26.647
  C       46.239     -19.218      24.315
  O       44.828     -19.451      24.181
  C       46.737     -18.290      23.204
  N       49.493     -19.663      19.129
  C       48.138     -19.412      19.217
  N       47.420     -19.610      18.090
  N       47.548     -19.024      20.316
  C       48.375     -18.962      21.385
  C       49.731     -19.201      21.423
  C       50.386     -19.578      20.187
  O       51.582     -19.818      20.056
  N       50.236     -19.034      22.690
  C       49.177     -18.770      23.428
  N       48.029     -18.690      22.677
  O       46.422     -14.894      29.557
  O       48.467     -14.255      28.161
  H       44.402     -18.615      23.920
  H       47.120     -15.284      30.113
  H       49.899     -19.933      18.250
  H       49.190     -18.604      24.500
  H       46.038     -18.265      22.359
  H       46.722     -20.200      24.329
  H       47.810     -20.019      17.255
  H       47.588     -18.593      25.852
  H       46.406     -19.696      18.179
  H       45.285     -16.702      25.092
  H       48.168     -16.294      26.033
  H       47.126     -14.995      25.465
  P       46.326     -19.560      27.925
  C       45.313     -21.889      27.358
  O       45.375     -20.806      28.260
  O       46.030     -18.525      29.108
  O       47.777     -19.882      27.819
  H       46.813     -17.967      29.271
  H       44.636     -22.628      27.733
  H       46.287     -22.320      27.250
  H       44.969     -21.541      26.406

 6  7  8  9  10  11  12  13  14  15  26  29  33  34 0
 6-311+G(2d,p)
 ****
 36  38  39  40  41 0
 6-311+G(2d,p)
 ****
 1  2  3  4  5  16  17  18  19  20  21  22  23  24  25 0
 3-21G
 ****
 27  28  30  31  32  35  37  42  43  44  45  46  47 0
 3-21G
 ****
 48  49 0
 3-21G
 ****


