%nproc=1
%NoSave
%Mem=1900MB
#P OB98/GEN NMR

erre ene a

0 1
  C      -55.877    -370.257     -59.229
  O      -55.451    -371.627     -59.300
  P      -54.477    -372.190     -60.445
  C      -54.793    -372.498     -62.985
  O      -55.356    -372.688     -61.694
  C      -55.664    -373.120     -64.084
  O      -55.772    -374.566     -63.885
  C      -57.102    -372.563     -64.152
  O      -57.443    -372.476     -65.534
  C      -57.893    -373.655     -63.442
  O      -59.284    -373.616     -63.720
  C      -57.174    -374.891     -63.986
  N      -57.466    -376.142     -63.291
  C      -58.670    -376.790     -63.594
  O      -59.483    -376.300     -64.373
  N      -58.941    -377.993     -62.983
  C      -58.093    -378.495     -62.142
  N      -58.419    -379.694     -61.577
  C      -56.828    -377.842     -61.778
  C      -56.577    -376.685     -62.387
  O      -53.507    -373.215     -59.954
  O      -53.703    -370.906     -61.011
  H      -52.785    -371.164     -61.242
  H      -59.395    -373.707     -64.690
  H      -56.148    -378.306     -61.077
  H      -55.650    -376.153     -62.192
  H      -57.399    -375.008     -65.056
  H      -57.763    -373.543     -62.364
  H      -57.203    -371.572     -63.701
  H      -55.158    -372.976     -65.042
  H      -59.300    -380.122     -61.860
  H      -53.805    -372.972     -63.009
  H      -57.830    -380.183     -60.916
  H      -54.662    -371.425     -63.162
  P      -58.550    -371.424     -66.018
  C      -61.154    -371.287     -65.972
  O      -59.992    -372.021     -65.645
  O      -58.526    -371.613     -67.612
  O      -58.300    -369.992     -65.669
  H      -58.830    -370.796     -68.038
  H      -61.893    -371.973     -66.396
  H      -60.957    -370.491     -66.690
  H      -61.569    -370.848     -65.054
  H      -56.519    -370.126     -58.383
  H      -56.408    -370.002     -60.122
  H      -55.021    -369.622     -59.129

 3  4  5  6  7  8  9  10  11  12  13  24  27  28  29  30  32 0
 6-311+G(2d,p)
 ****
 34  35 0
 6-311+G(2d,p)
 ****
 1  2  14  15  16  17  18  19  20  21  22  23  25  26 0
 3-21G
 ****
 31  33  36  37  38  39  40  41  42  43  44  45  46 0
 3-21G
 ****


