%nproc=1
%NoSave
%Mem=1900MB
#P OB98/GEN NMR

erre ene a

0 1
  C     -325.440    -391.236    -338.034
  O     -325.934    -392.230    -337.125
  P     -326.538    -393.580    -337.746
  C     -328.421    -393.737    -335.953
  O     -327.319    -394.372    -336.590
  C     -328.830    -394.505    -334.694
  O     -329.062    -395.904    -334.972
  C     -327.779    -394.485    -333.594
  O     -327.842    -393.284    -332.838
  C     -328.216    -395.667    -332.745
  O     -329.315    -395.281    -331.898
  C     -328.691    -396.668    -333.805
  N     -325.691    -400.473    -332.139
  C     -326.576    -399.672    -331.500
  N     -327.318    -398.670    -332.007
  C     -327.102    -398.539    -333.324
  C     -326.236    -399.279    -334.112
  C     -325.505    -400.289    -333.466
  N     -324.612    -401.107    -334.129
  N     -326.270    -398.846    -335.420
  C     -327.156    -397.867    -335.425
  N     -327.679    -397.641    -334.183
  O     -325.236    -394.480    -337.988
  O     -327.307    -393.377    -339.009
  H     -328.933    -394.836    -331.120
  H     -325.358    -395.028    -338.787
  H     -326.693    -399.863    -330.437
  H     -327.452    -397.305    -336.299
  H     -329.573    -397.229    -333.478
  H     -327.419    -396.031    -332.089
  H     -326.777    -394.664    -334.006
  H     -329.766    -394.067    -334.320
  H     -329.265    -393.676    -336.648
  H     -324.144    -401.825    -333.601
  H     -324.485    -400.986    -335.121
  H     -328.146    -392.705    -335.712
  P     -326.467    -392.728    -332.225
  C     -327.245    -392.077    -329.834
  O     -326.891    -391.641    -331.131
  O     -325.859    -391.863    -333.426
  O     -325.525    -393.792    -331.766
  H     -324.884    -391.870    -333.386
  H     -327.204    -391.226    -329.152
  H     -326.556    -392.846    -329.474
  H     -328.262    -392.475    -329.844
  H     -325.071    -390.398    -337.480
  H     -326.232    -390.917    -338.678
  H     -324.648    -391.652    -338.621

 3  4  5  6  7  8  9  10  11  12  22  25  29  30  31  32 0
 6-311+G(2d,p)
 ****
 33  36  37 0
 6-311+G(2d,p)
 ****
 1  2  13  14  15  16  17  18  19  20  21  23  24  26 0
 3-21G
 ****
 27  28  34  35  38  39  40  41  42  43  44  45  46  47  48 0
 3-21G
 ****


