%nproc=1
%NoSave
%Mem=1900MB
#P OB98/GEN NMR

erre ene a

0 1
  C      -88.583    -159.020     214.165
  O      -87.919    -158.227     213.200
  H      -89.334    -159.633     213.656
  H      -89.091    -158.379     214.889
  H      -87.879    -159.681     214.675
  P      -86.670    -157.332     213.653
  C      -85.228    -157.618     211.532
  O      -86.004    -156.726     212.321
  C      -84.794    -156.945     210.224
  O      -85.922    -156.939     209.309
  C      -84.321    -155.494     210.399
  O      -83.236    -155.243     209.508
  C      -85.533    -154.680     209.983
  O      -85.173    -153.382     209.508
  C      -86.158    -155.572     208.908
  N      -89.595    -152.442     206.922
  C      -88.221    -152.447     206.799
  N      -87.671    -151.469     206.049
  N      -87.444    -153.338     207.363
  C      -88.131    -154.279     208.062
  C      -89.484    -154.381     208.261
  C      -90.330    -153.377     207.648
  O      -91.554    -153.307     207.738
  N      -89.797    -155.463     209.051
  C      -88.627    -156.011     209.333
  N      -87.583    -155.322     208.765
  O      -85.706    -158.014     214.576
  O      -87.332    -156.048     214.341
  H      -84.393    -153.500     208.924
  H      -87.247    -156.090     215.311
  H      -90.143    -151.725     206.477
  H      -88.482    -156.896     209.937
  H      -85.706    -155.418     207.919
  H      -86.211    -154.560     210.836
  H      -88.210    -150.761     205.567
  H      -84.014    -155.283     211.422
  H      -86.666    -151.464     205.917
  H      -84.010    -157.557     209.760
  H      -85.836    -158.500     211.309
  H      -84.344    -157.932     212.104
  P      -82.063    -154.248     209.969
  C      -80.137    -155.344     208.663
  O      -80.948    -154.188     208.811
  O      -81.528    -154.481     211.342
  O      -82.759    -152.803     209.861
  H      -82.404    -152.234     210.570
  H      -79.437    -155.189     207.868
  H      -80.755    -156.187     208.435
  H      -79.607    -155.527     209.574

 6  7  8  9  10  11  12  13  14  15  26  29  33  34 0
 6-311+G(2d,p)
 ****
 36  38  39  40  41 0
 6-311+G(2d,p)
 ****
 1  2  3  4  5  16  17  18  19  20  21  22  23  24  25 0
 3-21G
 ****
 27  28  30  31  32  35  37  42  43  44  45  46  47 0
 3-21G
 ****
 48  49 0
 3-21G
 ****


