%nproc=1
%NoSave
%Mem=1900MB
#P OB98/GEN NMR

erre ene a

0 1
  C      741.443    -850.566     127.859
  O      741.285    -851.971     127.836
  H      742.006    -850.309     128.754
  H      740.475    -850.075     127.895
  H      742.014    -850.241     126.994
  P      740.438    -852.628     126.635
  C      738.111    -852.083     127.608
  O      739.049    -851.840     126.571
  C      736.695    -852.170     127.050
  O      736.644    -853.334     126.147
  C      735.611    -852.383     128.142
  O      734.555    -851.431     128.054
  C      735.271    -853.871     128.016
  O      733.968    -854.194     128.476
  C      735.531    -854.164     126.541
  N      735.823    -855.555     126.260
  C      734.747    -856.398     125.970
  O      733.567    -856.048     125.904
  N      735.069    -857.715     125.724
  C      736.318    -858.261     125.746
  O      736.534    -859.452     125.532
  C      737.411    -857.336     126.094
  C      737.116    -856.059     126.328
  O      740.310    -854.115     126.684
  O      741.199    -852.143     125.321
  H      733.899    -855.159     128.463
  H      741.707    -852.888     124.943
  H      734.296    -858.316     125.494
  H      738.411    -857.734     126.143
  H      737.914    -855.348     126.588
  H      734.682    -853.875     125.925
  H      735.981    -854.443     128.638
  H      736.044    -852.190     129.132
  H      736.484    -851.281     126.450
  H      738.174    -851.250     128.336
  H      738.361    -853.018     128.137
  P      734.360    -850.190     129.055
  C      732.594    -850.800     130.913
  O      733.964    -850.756     130.498
  O      733.544    -849.070     128.514
  O      735.871    -849.643     129.289
  H      735.783    -848.691     129.410
  H      732.533    -851.207     131.901
  H      732.037    -851.416     130.238
  H      732.188    -849.810     130.910

 6  7  8  9  10  11  12  13  14  15  16  26  31  32  33  34  35 0
 6-311+G(2d,p)
 ****
 36  37 0
 6-311+G(2d,p)
 ****
 1  2  3  4  5  17  18  19  20  21  22  23  24  25 0
 3-21G
 ****
 27  28  29  30  38  39  40  41  42  43  44  45 0
 3-21G
 ****


