%nproc=1
%NoSave
%Mem=1900MB
#P OB98/GEN NMR

erre ene a

0 1
  C      -88.763     634.167    -766.065
  O      -89.355     634.605    -764.854
  H      -89.498     634.176    -766.876
  H      -87.948     634.851    -766.320
  H      -88.360     633.164    -765.942
  P      -90.649     633.794    -764.364
  C      -89.769     633.862    -761.925
  O      -90.226     633.051    -763.002
  C      -90.908     634.126    -760.941
  O      -91.466     632.868    -760.483
  C      -90.494     634.855    -759.671
  O      -90.356     636.254    -759.883
  C      -91.680     634.538    -758.759
  O      -92.771     635.424    -759.070
  C      -92.038     633.105    -759.174
  N      -92.354     631.099    -754.445
  C      -93.021     632.110    -755.040
  N      -92.891     632.596    -756.295
  C      -91.946     631.909    -756.964
  C      -91.185     630.855    -756.487
  C      -91.411     630.446    -755.167
  N      -90.721     629.420    -754.555
  N      -90.325     630.387    -757.466
  C      -90.559     631.152    -758.519
  N      -91.524     632.091    -758.265
  O      -90.756     632.587    -765.415
  O      -91.914     634.577    -764.293
  H      -92.474     636.328    -758.854
  H      -91.703     632.398    -765.578
  H      -93.782     632.593    -754.433
  H      -90.054     631.062    -759.478
  H      -93.120     632.965    -759.262
  H      -91.451     634.658    -757.705
  H      -89.581     634.419    -759.236
  H      -91.699     634.675    -761.465
  H      -89.407     634.820    -762.319
  H      -91.060     629.056    -753.685
  H      -90.008     628.933    -755.106
  H      -88.946     633.347    -761.419
  P      -89.195     637.020    -759.072
  C      -87.549     637.307    -761.079
  O      -87.824     636.653    -759.835
  O      -89.089     636.176    -757.709
  O      -89.435     638.462    -758.816
  H      -88.726     636.738    -756.998
  H      -86.611     636.964    -761.463
  H      -87.505     638.365    -760.924
  H      -88.325     637.081    -761.780

 6  7  8  9  10  11  12  13  14  15  25  28  32  33  34  35 0
 6-311+G(2d,p)
 ****
 36  39  40 0
 6-311+G(2d,p)
 ****
 1  2  3  4  5  16  17  18  19  20  21  22  23  24 0
 3-21G
 ****
 26  27  29  30  31  37  38  41  42  43  44  45  46  47  48 0
 3-21G
 ****


