%nproc=1
%NoSave
%Mem=1900MB
#P OB98/GEN NMR

erre ene a

0 1
  C     -280.457    -952.291     766.749
  O     -279.165    -952.480     766.236
  P     -278.600    -953.903     765.779
  C     -277.988    -954.975     768.065
  O     -277.504    -954.395     766.869
  C     -276.878    -955.371     769.053
  O     -276.053    -956.408     768.461
  C     -275.948    -954.172     769.286
  O     -276.283    -953.183     770.236
  C     -274.566    -954.784     769.458
  O     -274.190    -954.928     770.834
  C     -274.697    -956.155     768.793
  N     -273.038    -959.345     765.202
  C     -274.058    -959.507     766.096
  N     -274.583    -960.766     766.147
  N     -274.528    -958.556     766.866
  C     -273.826    -957.384     766.771
  C     -272.804    -957.098     765.883
  C     -272.313    -958.150     765.015
  O     -271.359    -958.060     764.255
  N     -272.276    -955.837     766.108
  C     -272.980    -955.389     767.122
  N     -273.899    -956.298     767.579
  O     -278.283    -954.066     764.318
  O     -279.853    -954.863     766.110
  H     -273.362    -955.440     770.861
  H     -279.878    -955.567     765.426
  H     -272.666    -960.137     764.690
  H     -272.829    -954.435     767.593
  H     -274.374    -956.936     769.481
  H     -273.792    -954.126     769.002
  H     -274.165    -961.545     765.694
  H     -275.903    -953.619     768.340
  H     -275.214    -960.961     766.931
  H     -277.290    -955.805     769.970
  H     -278.587    -955.853     767.795
  H     -278.684    -954.280     768.565
  P     -276.623    -951.645     769.941
  C     -274.206    -950.931     770.394
  O     -275.555    -950.738     770.735
  O     -277.972    -951.376     770.741
  O     -276.782    -951.315     768.494
  H     -278.438    -950.595     770.341
  H     -273.561    -950.516     771.154
  H     -273.979    -950.421     769.445
  H     -273.989    -951.996     770.274
  H     -280.600    -951.257     766.982
  H     -280.578    -952.876     767.636
  H     -281.178    -952.596     766.020

 3  4  5  6  7  8  9  10  11  12  23  26  30  31 0
 6-311+G(2d,p)
 ****
 33  35  36  37  38 0
 6-311+G(2d,p)
 ****
 1  2  13  14  15  16  17  18  19  20  21  22  24  25 0
 3-21G
 ****
 27  28  29  32  34  39  40  41  42  43  44  45  46  47  48  49 0
 3-21G
 ****


