%nproc=1
%NoSave
%Mem=1900MB
#P OB98/GEN NMR

erre ene a

0 1
  C      212.366    -174.806    -159.423
  O      212.772    -175.021    -158.085
  H      211.495    -175.435    -159.629
  H      213.163    -175.072    -160.121
  H      212.083    -173.759    -159.562
  P      214.190    -174.429    -157.621
  C      215.308    -176.712    -157.178
  O      214.792    -175.518    -156.600
  C      216.017    -177.574    -156.135
  O      217.224    -176.926    -155.676
  C      215.202    -177.819    -154.874
  O      214.053    -178.612    -155.057
  C      216.274    -178.275    -153.894
  O      216.584    -179.661    -154.034
  C      217.484    -177.414    -154.337
  N      217.757    -176.324    -153.413
  C      218.519    -176.648    -152.296
  O      218.933    -177.786    -152.063
  N      218.765    -175.622    -151.423
  C      218.296    -174.347    -151.534
  O      218.538    -173.476    -150.704
  C      217.464    -174.070    -152.717
  C      217.234    -175.056    -153.587
  O      214.160    -173.033    -157.073
  O      215.116    -174.598    -158.913
  H      217.291    -179.862    -153.390
  H      215.937    -174.050    -158.837
  H      219.331    -175.835    -150.614
  H      217.067    -173.073    -152.829
  H      216.628    -174.876    -154.470
  H      218.387    -178.036    -154.404
  H      215.981    -178.113    -152.855
  H      214.843    -176.848    -154.506
  H      216.308    -178.517    -156.612
  H      216.024    -176.426    -157.957
  H      214.490    -177.278    -157.643
  P      212.651    -178.039    -155.550
  C      211.304    -178.174    -153.312
  O      211.495    -178.666    -154.634
  O      212.427    -177.983    -157.027
  O      212.714    -176.515    -155.014
  H      212.238    -175.960    -155.663
  H      210.497    -178.701    -152.848
  H      211.073    -177.130    -153.350
  H      212.199    -178.321    -152.744

 6  7  8  9  10  11  12  13  14  15  16  26  31  32  33  34  35 0
 6-311+G(2d,p)
 ****
 36  37 0
 6-311+G(2d,p)
 ****
 1  2  3  4  5  17  18  19  20  21  22  23  24  25 0
 3-21G
 ****
 27  28  29  30  38  39  40  41  42  43  44  45 0
 3-21G
 ****


