%nproc=1
%NoSave
%Mem=1900MB
#P OB98/GEN NMR

erre ene a

0 1
  C     -353.017    -283.810    -301.141
  O     -353.336    -285.174    -301.325
  H     -352.013    -283.739    -300.715
  H     -353.729    -283.352    -300.450
  H     -353.034    -283.282    -302.099
  P     -354.741    -285.504    -302.028
  C     -355.695    -287.259    -300.373
  O     -355.096    -287.023    -301.641
  C     -355.380    -288.671    -299.882
  O     -354.002    -288.711    -299.407
  C     -356.276    -289.150    -298.730
  O     -356.492    -290.559    -298.891
  C     -355.394    -288.945    -297.508
  O     -355.795    -289.751    -296.399
  C     -354.030    -289.303    -298.097
  N     -351.395    -290.278    -293.919
  C     -352.419    -290.991    -294.528
  N     -352.797    -292.141    -293.925
  N     -353.013    -290.608    -295.622
  C     -352.510    -289.456    -296.130
  C     -351.510    -288.658    -295.629
  C     -350.874    -289.078    -294.398
  O     -349.980    -288.482    -293.806
  N     -351.312    -287.553    -296.424
  C     -352.189    -287.690    -297.404
  N     -352.940    -288.825    -297.270
  O     -354.342    -285.591    -303.578
  O     -355.827    -284.511    -301.789
  H     -355.127    -289.642    -295.691
  H     -354.479    -284.731    -304.013
  H     -350.977    -290.612    -293.069
  H     -352.320    -286.998    -298.227
  H     -353.897    -290.385    -298.205
  H     -355.422    -287.895    -297.195
  H     -352.350    -292.519    -293.106
  H     -357.239    -288.633    -298.659
  H     -353.512    -292.699    -294.375
  H     -355.440    -289.358    -300.734
  H     -356.781    -287.143    -300.464
  H     -355.317    -286.521    -299.653
  P     -357.971    -291.128    -298.657
  C     -357.061    -293.311    -297.574
  O     -357.884    -292.725    -298.570
  O     -358.673    -290.890    -300.080
  O     -358.721    -290.457    -297.551
  H     -359.635    -290.776    -299.958
  H     -357.113    -294.377    -297.650
  H     -357.400    -293.006    -296.606
  H     -356.049    -292.992    -297.715

 6  7  8  9  10  11  12  13  14  15  26  29  33  34 0
 6-311+G(2d,p)
 ****
 36  38  39  40  41 0
 6-311+G(2d,p)
 ****
 1  2  3  4  5  16  17  18  19  20  21  22  23  24  25 0
 3-21G
 ****
 27  28  30  31  32  35  37  42  43  44  45  46  47 0
 3-21G
 ****
 48  49 0
 3-21G
 ****


