%nproc=1
%NoSave
%Mem=1900MB
#P OB98/GEN NMR

erre ene a

0 1
  C       43.158    -252.826    -131.900
  O       44.043    -253.826    -131.442
  P       44.047    -255.298    -132.076
  C       42.475    -257.318    -132.197
  O       42.700    -256.037    -131.617
  C       41.044    -257.800    -131.947
  O       40.108    -256.777    -132.396
  C       40.685    -259.113    -132.658
  O       39.853    -259.860    -131.772
  C       39.893    -258.638    -133.866
  O       39.055    -259.660    -134.390
  C       39.167    -257.426    -133.274
  N       38.686    -256.511    -134.302
  C       37.546    -256.901    -135.007
  O       37.065    -258.023    -134.838
  N       36.983    -256.004    -135.886
  C       37.616    -254.911    -136.181
  N       36.995    -254.023    -137.004
  C       38.956    -254.586    -135.634
  C       39.408    -255.401    -134.684
  O       45.296    -256.083    -131.851
  O       43.804    -255.042    -133.644
  H       44.505    -255.497    -134.150
  H       38.595    -259.313    -135.180
  H       39.499    -253.734    -136.007
  H       40.366    -255.235    -134.208
  H       38.313    -257.747    -132.665
  H       40.588    -258.323    -134.661
  H       41.569    -259.707    -132.919
  H       40.904    -257.908    -130.859
  H       36.063    -254.259    -137.321
  H       43.169    -258.022    -131.738
  H       37.255    -253.038    -137.029
  H       42.684    -257.286    -133.270
  P       39.874    -261.466    -131.878
  C       39.141    -263.233    -133.632
  O       39.392    -261.871    -133.348
  O       38.594    -261.863    -130.981
  O       41.093    -262.154    -131.345
  H       38.714    -262.775    -130.641
  H       38.893    -263.330    -134.691
  H       38.290    -263.600    -133.036
  H       40.026    -263.843    -133.423
  H       43.320    -251.925    -131.346
  H       42.148    -253.153    -131.762
  H       43.334    -252.642    -132.939

 3  4  5  6  7  8  9  10  11  12  13  24  27  28  29  30  32 0
 6-311+G(2d,p)
 ****
 34  35 0
 6-311+G(2d,p)
 ****
 1  2  14  15  16  17  18  19  20  21  22  23  25  26 0
 3-21G
 ****
 31  33  36  37  38  39  40  41  42  43  44  45  46 0
 3-21G
 ****


