%nproc=1
%NoSave
%Mem=1900MB
#P OB98/GEN NMR

erre ene a

0 1
  C      171.222      82.559      -8.679
  O      170.441      81.436      -9.044
  H      172.275      82.264      -8.660
  H      170.933      82.903      -7.682
  H      171.093      83.368      -9.403
  P      168.895      81.716      -9.356
  C      166.901      81.235      -7.723
  O      168.146      81.885      -7.943
  C      166.458      81.427      -6.276
  O      167.394      80.814      -5.367
  C      166.416      82.877      -5.823
  O      165.332      83.589      -6.378
  C      166.315      82.699      -4.314
  O      164.962      82.490      -3.895
  C      167.165      81.427      -4.077
  N      168.402      81.729      -3.380
  C      168.249      82.291      -2.104
  O      167.123      82.477      -1.642
  N      169.372      82.657      -1.410
  C      170.542      82.506      -1.949
  N      171.612      82.921      -1.221
  C      170.746      81.921      -3.289
  C      169.643      81.558      -3.944
  O      168.385      80.292      -9.873
  O      168.642      82.838     -10.306
  H      164.612      81.761      -4.447
  H      168.638      79.552      -9.297
  H      171.743      81.802      -3.688
  H      169.701      81.119      -4.933
  H      166.605      80.697      -3.479
  H      166.682      83.579      -3.780
  H      167.371      83.370      -6.045
  H      165.481      80.942      -6.150
  H      171.423      83.367      -0.330
  H      166.977      80.169      -7.959
  H      172.559      82.925      -1.567
  H      166.170      81.675      -8.408
  P      165.309      85.189      -6.397
  C      163.927      86.886      -5.036
  O      164.647      85.658      -5.008
  O      164.694      85.806      -7.608
  O      166.847      85.576      -6.179
  H      167.239      85.249      -5.351
  H      163.535      87.092      -4.062
  H      163.121      86.811      -5.736
  H      164.583      87.678      -5.331

 6  7  8  9  10  11  12  13  14  15  16  26  30  31  32  33  35 0
 6-311+G(2d,p)
 ****
 37  38 0
 6-311+G(2d,p)
 ****
 1  2  3  4  5  17  18  19  20  21  22  23  24  25 0
 3-21G
 ****
 27  28  29  34  36  39  40  41  42  43  44  45  46 0
 3-21G
 ****


