%nproc=1
%NoSave
%Mem=1900MB
#P OB98/GEN NMR

erre ene a

0 1
  C     -805.782    -726.216    -954.962
  O     -806.601    -725.781    -953.886
  H     -806.395    -726.269    -955.875
  H     -805.403    -727.217    -954.748
  H     -804.953    -725.529    -955.141
  P     -805.845    -725.259    -952.569
  C     -806.898    -722.892    -952.731
  O     -806.756    -724.072    -951.969
  C     -808.373    -722.472    -952.821
  O     -809.007    -723.238    -953.898
  C     -809.168    -722.741    -951.519
  O     -810.136    -721.692    -951.352
  C     -809.932    -724.030    -951.846
  O     -811.103    -724.186    -951.045
  C     -810.212    -723.803    -953.342
  N     -813.936    -727.169    -953.739
  C     -813.927    -725.902    -953.172
  N     -815.050    -725.485    -952.554
  N     -812.868    -725.114    -953.196
  C     -811.818    -725.644    -953.854
  C     -811.707    -726.877    -954.466
  C     -812.869    -727.746    -954.414
  O     -812.938    -728.877    -954.900
  N     -810.451    -727.064    -954.973
  C     -809.794    -725.955    -954.670
  N     -810.571    -725.074    -953.993
  O     -804.574    -724.488    -953.169
  O     -805.444    -726.321    -951.603
  H     -811.462    -725.077    -951.212
  H     -803.804    -725.088    -953.198
  H     -814.767    -727.723    -953.685
  H     -808.760    -725.753    -954.898
  H     -811.033    -723.116    -953.505
  H     -809.282    -724.897    -951.690
  H     -815.901    -726.018    -952.525
  H     -808.565    -722.831    -950.623
  H     -815.066    -724.550    -952.174
  H     -808.432    -721.422    -953.100
  H     -806.525    -723.073    -953.750
  H     -806.307    -722.077    -952.273
  P     -810.712    -721.442    -949.876
  C     -810.097    -718.915    -949.943
  O     -811.118    -719.884    -949.741
  O     -809.415    -721.563    -948.940
  O     -811.775    -722.411    -949.466
  H     -809.656    -721.961    -948.090
  H     -810.507    -717.934    -949.823
  H     -809.699    -719.017    -950.931
  H     -809.316    -719.065    -949.227

 6  7  8  9  10  11  12  13  14  15  26  29  33  34 0
 6-311+G(2d,p)
 ****
 36  38  39  40  41 0
 6-311+G(2d,p)
 ****
 1  2  3  4  5  16  17  18  19  20  21  22  23  24  25 0
 3-21G
 ****
 27  28  30  31  32  35  37  42  43  44  45  46  47 0
 3-21G
 ****
 48  49 0
 3-21G
 ****


