%nproc=1
%NoSave
%Mem=1900MB
#P OB98/GEN NMR

erre ene a

0 1
  C      865.089    -383.437     847.747
  O      864.519    -384.743     847.742
  P      864.598    -385.577     846.371
  C      862.021    -386.020     846.136
  O      863.184    -385.361     845.642
  C      860.900    -385.954     845.112
  O      860.554    -384.568     844.827
  C      861.257    -386.553     843.765
  O      861.264    -387.972     843.803
  C      860.178    -385.946     842.875
  O      858.947    -386.680     843.019
  C      860.023    -384.529     843.476
  N      860.663    -383.503     842.686
  C      860.198    -383.359     841.378
  O      859.321    -384.072     840.898
  N      860.809    -382.381     840.626
  C      861.820    -381.572     841.038
  O      862.319    -380.700     840.324
  C      862.310    -381.796     842.414
  C      861.720    -382.736     843.159
  O      864.539    -387.087     846.918
  O      865.812    -385.249     845.558
  H      863.969    -387.178     847.699
  H      858.281    -386.217     842.469
  H      860.468    -382.259     839.686
  H      863.131    -381.196     842.751
  H      862.070    -382.909     844.175
  H      858.959    -384.280     843.580
  H      860.445    -385.963     841.809
  H      862.245    -386.189     843.435
  H      860.016    -386.454     845.521
  H      861.683    -385.541     847.065
  H      862.278    -387.064     846.375
  P      862.698    -388.694     843.769
  C      862.437    -390.128     841.601
  O      863.016    -389.007     842.242
  O      862.342    -390.131     844.403
  O      863.768    -387.943     844.506
  H      861.524    -390.501     844.042
  H      862.479    -389.979     840.532
  H      861.391    -390.268     841.900
  H      863.000    -391.031     841.862
  H      864.967    -382.998     848.715
  H      864.597    -382.830     847.016
  H      866.131    -383.502     847.513

 3  4  5  6  7  8  9  10  11  12  13  24  28  29  30  31  32 0
 6-311+G(2d,p)
 ****
 33  34 0
 6-311+G(2d,p)
 ****
 1  2  14  15  16  17  18  19  20  21  22  23  25  26  27 0
 3-21G
 ****
 35  36  37  38  39  40  41  42  43  44  45 0
 3-21G
 ****


