%nproc=1
%NoSave
%Mem=1900MB
#P OB98/GEN NMR

erre ene a

0 1
  C       20.260      -4.471     128.897
  O       21.451      -3.895     128.400
  H       19.709      -3.712     129.458
  H       20.499      -5.298     129.568
  H       19.631      -4.828     128.075
  P       22.303      -4.757     127.352
  C       22.218      -3.032     125.409
  O       23.017      -3.704     126.369
  C       22.795      -1.645     125.127
  O       22.418      -0.757     126.217
  C       24.326      -1.617     125.022
  O       24.692      -0.656     124.026
  C       24.754      -1.108     126.385
  O       26.040      -0.505     126.398
  C       23.622      -0.124     126.695
  N       23.522       0.188     128.119
  C       24.465       1.062     128.650
  O       25.319       1.655     127.994
  N       24.400       1.248     130.007
  C       23.526       0.644     130.862
  O       23.532       0.835     132.072
  C       22.560      -0.276     130.244
  C       22.605      -0.461     128.923
  O       21.176      -5.419     126.430
  O       23.222      -5.769     127.950
  H       20.896      -6.278     126.798
  H       26.108       0.024     127.219
  H       25.076       1.877     130.408
  H       21.858      -0.782     130.893
  H       21.920      -1.148     128.437
  H       23.754       0.802     126.124
  H       24.761      -1.934     127.106
  H       24.776      -2.586     124.784
  H       22.333      -1.249     124.216
  H       21.200      -2.921     125.796
  H       22.183      -3.625     124.489
  P       26.223      -0.640     123.544
  C       25.536      -0.657     121.016
  O       26.206       0.007     122.078
  O       26.482      -2.196     123.290
  O       27.138       0.003     124.531
  H       25.701      -2.660     122.945
  H       25.630      -0.081     120.119
  H       24.500      -0.768     121.262
  H       25.973      -1.623     120.867

 6  7  8  9  10  11  12  13  14  15  16  27  31  32  33  34  35 0
 6-311+G(2d,p)
 ****
 36  37 0
 6-311+G(2d,p)
 ****
 1  2  3  4  5  17  18  19  20  21  22  23  24  25 0
 3-21G
 ****
 26  28  29  30  38  39  40  41  42  43  44  45 0
 3-21G
 ****


