%nproc=1
%NoSave
%Mem=1900MB
#P OB98/GEN NMR

erre ene a

0 1
  C     -671.468      11.284     162.994
  O     -672.825      11.504     163.325
  H     -671.362      11.320     161.903
  H     -671.149      10.301     163.346
  H     -670.835      12.064     163.434
  P     -673.199      11.488     164.890
  C     -674.654      13.644     164.842
  O     -674.628      12.228     165.015
  C     -676.101      14.134     164.747
  O     -676.626      13.805     163.425
  C     -677.044      13.510     165.782
  O     -677.974      14.497     166.221
  C     -677.788      12.451     164.978
  O     -679.043      12.116     165.567
  C     -677.889      13.152     163.627
  N     -679.998      12.745     159.073
  C     -679.831      13.850     159.886
  N     -680.293      15.039     159.421
  N     -679.251      13.802     161.061
  C     -678.813      12.563     161.386
  C     -678.932      11.393     160.673
  C     -679.585      11.457     159.387
  O     -679.792      10.515     158.633
  N     -678.386      10.330     161.369
  C     -677.940      10.868     162.493
  N     -678.172      12.218     162.550
  O     -672.180      12.547     165.529
  O     -673.123      10.157     165.557
  H     -678.877      11.814     166.480
  H     -671.966      12.306     166.453
  H     -680.458      12.846     158.180
  H     -677.450      10.324     163.294
  H     -678.682      13.913     163.607
  H     -677.176      11.544     164.908
  H     -680.719      15.159     158.511
  H     -676.527      13.090     166.651
  H     -680.167      15.862     159.998
  H     -676.097      15.227     164.824
  H     -674.111      13.898     163.923
  H     -674.159      14.115     165.699
  P     -677.721      15.182     167.648
  C     -677.578      17.675     166.916
  O     -678.306      16.686     167.617
  O     -676.137      15.411     167.660
  O     -678.160      14.351     168.808
  H     -675.714      14.790     168.278
  H     -678.090      18.612     166.987
  H     -677.492      17.393     165.888
  H     -676.601      17.769     167.343

 6  7  8  9  10  11  12  13  14  15  26  29  33  34 0
 6-311+G(2d,p)
 ****
 36  38  39  40  41 0
 6-311+G(2d,p)
 ****
 1  2  3  4  5  16  17  18  19  20  21  22  23  24  25 0
 3-21G
 ****
 27  28  30  31  32  35  37  42  43  44  45  46  47 0
 3-21G
 ****
 48  49 0
 3-21G
 ****


