%nproc=1
%NoSave
%Mem=1900MB
#P OB98/GEN NMR

erre ene a

0 1
  C      507.548     717.485      44.847
  O      506.664     717.246      43.769
  H      506.960     717.659      45.752
  H      508.159     718.373      44.661
  H      508.195     716.618      45.009
  P      507.283     717.113      42.298
  C      505.840     719.038      41.339
  O      507.149     718.577      41.643
  C      505.920     720.373      40.602
  O      506.352     721.416      41.496
  C      506.919     720.376      39.456
  O      506.404     719.679      38.333
  C      507.141     721.857      39.264
  O      506.076     722.450      38.504
  C      507.121     722.361      40.725
  N      508.467     722.523      41.283
  C      509.233     723.557      40.738
  O      508.783     724.272      39.844
  N      510.519     723.732      41.201
  C      510.978     722.967      42.144
  N      512.255     723.198      42.564
  C      510.188     721.875      42.760
  C      508.957     721.717      42.277
  O      506.760     716.005      41.436
  O      508.858     716.978      42.559
  H      506.320     722.328      37.565
  H      509.105     716.038      42.663
  H      510.613     721.265      43.538
  H      508.311     720.939      42.678
  H      506.604     723.328      40.793
  H      508.077     722.060      38.738
  H      507.868     719.925      39.784
  H      504.912     720.629      40.245
  H      512.758     723.949      42.105
  H      505.313     719.166      42.288
  H      512.683     722.726      43.344
  H      505.302     718.301      40.731
  P      507.363     719.227      37.138
  C      506.002     720.504      35.353
  O      507.258     720.393      36.033
  O      507.150     717.844      36.629
  O      508.839     719.462      37.750
  H      509.064     718.768      38.409
  H      506.048     721.307      34.647
  H      505.227     720.699      36.065
  H      505.792     719.589      34.839

 6  7  8  9  10  11  12  13  14  15  16  26  30  31  32  33  35 0
 6-311+G(2d,p)
 ****
 37  38 0
 6-311+G(2d,p)
 ****
 1  2  3  4  5  17  18  19  20  21  22  23  24  25 0
 3-21G
 ****
 27  28  29  34  36  39  40  41  42  43  44  45  46 0
 3-21G
 ****


