%nproc=1
%NoSave
%Mem=1900MB
#P OB98/GEN NMR

erre ene a

0 1
  C       69.755    -102.871     273.496
  O       69.117    -101.680     273.903
  H       70.786    -102.636     273.217
  H       69.247    -103.295     272.627
  H       69.772    -103.600     274.310
  P       67.630    -101.762     274.493
  C       66.729    -100.064     272.777
  O       66.917    -100.366     274.154
  C       66.382     -98.587     272.613
  O       65.180     -98.270     273.347
  C       67.453     -97.639     273.139
  O       68.549     -97.574     272.250
  C       66.647     -96.356     273.271
  O       66.490     -95.712     271.998
  C       65.288     -96.895     273.779
  N       65.140     -96.784     275.231
  C       64.445     -95.671     275.692
  O       63.977     -94.811     274.949
  N       64.347     -95.553     277.054
  C       64.940     -96.372     277.969
  O       65.011     -96.108     279.165
  C       65.595     -97.570     277.425
  C       65.678     -97.711     276.100
  O       67.520    -102.197     275.916
  O       66.891    -102.788     273.508
  H       66.841    -103.664     273.935
  H       67.343     -95.278     271.801
  H       63.886     -94.724     277.401
  H       66.023     -98.279     278.123
  H       66.183     -98.572     275.676
  H       64.461     -96.348     273.310
  H       67.122     -95.634     273.938
  H       67.779     -97.957     274.136
  H       66.187     -98.399     271.548
  H       65.905    -100.676     272.397
  H       67.642    -100.314     272.228
  P       69.919     -98.338     272.567
  C       71.061     -96.134     271.935
  O       71.108     -97.550     271.837
  O       69.899     -99.808     272.306
  O       70.188     -98.038     274.119
  H       70.326     -98.883     274.588
  H       71.896     -95.713     271.416
  H       71.099     -95.846     272.965
  H       70.152     -95.776     271.498

 6  7  8  9  10  11  12  13  14  15  16  27  31  32  33  34  35 0
 6-311+G(2d,p)
 ****
 36  37 0
 6-311+G(2d,p)
 ****
 1  2  3  4  5  17  18  19  20  21  22  23  24  25 0
 3-21G
 ****
 26  28  29  30  38  39  40  41  42  43  44  45 0
 3-21G
 ****


