%nproc=1
%NoSave
%Mem=1900MB
#P OB98/GEN NMR

erre ene a

0 1
  C      151.757     229.079     233.321
  O      151.196     228.318     232.270
  P      150.187     229.008     231.236
  C      148.444     227.119     231.171
  O      148.712     228.468     231.555
  C      147.697     226.395     232.288
  O      148.435     226.475     233.527
  C      146.319     226.969     232.590
  O      145.378     226.582     231.605
  C      146.063     226.404     233.982
  O      145.581     225.053     233.897
  C      147.467     226.434     234.599
  N      147.056     228.056     239.421
  C      146.629     226.927     238.810
  N      146.746     226.584     237.512
  C      147.355     227.563     236.816
  C      147.807     228.782     237.296
  C      147.664     229.012     238.675
  N      148.149     230.127     239.318
  N      148.350     229.536     236.267
  C      148.208     228.784     235.189
  N      147.673     227.559     235.489
  O      150.595     228.930     229.803
  O      150.123     230.533     231.723
  H      144.718     225.080     233.438
  H      150.438     231.116     231.006
  H      146.141     226.203     239.455
  H      148.494     229.075     234.187
  H      147.676     225.523     235.176
  H      145.319     226.980     234.542
  H      146.380     228.066     232.654
  H      147.616     225.330     232.011
  H      149.400     226.620     230.976
  H      148.116     230.122     240.328
  H      148.855     230.687     238.850
  H      147.852     227.113     230.249
  P      144.872     227.646     230.523
  C      142.773     228.073     231.930
  O      143.890     228.652     231.284
  O      144.341     227.069     229.251
  O      146.171     228.553     230.251
  H      146.161     228.861     229.325
  H      142.005     227.830     231.190
  H      142.363     228.792     232.643
  H      143.059     227.166     232.467
  H      152.402     228.457     233.907
  H      150.974     229.464     233.940
  H      152.320     229.892     232.912

 3  4  5  6  7  8  9  10  11  12  22  25  29  30  31  32 0
 6-311+G(2d,p)
 ****
 33  36  37 0
 6-311+G(2d,p)
 ****
 1  2  13  14  15  16  17  18  19  20  21  23  24  26 0
 3-21G
 ****
 27  28  34  35  38  39  40  41  42  43  44  45  46  47  48 0
 3-21G
 ****


