%nproc=1
%NoSave
%Mem=1900MB
#P OB98/GEN NMR

erre ene a

0 1
  C     -114.371    -128.155     112.678
  O     -115.147    -127.001     112.891
  P     -114.546    -125.522     112.949
  C     -113.132    -124.130     114.657
  O     -113.586    -125.408     114.229
  C     -112.048    -124.261     115.738
  O     -111.039    -125.198     115.275
  C     -111.328    -122.920     115.988
  O     -111.076    -122.641     117.361
  C     -110.124    -123.002     115.055
  O     -109.071    -122.112     115.406
  C     -109.791    -124.489     115.109
  N     -105.344    -125.015     112.687
  C     -105.583    -124.625     113.991
  N     -104.517    -124.147     114.678
  N     -106.766    -124.671     114.556
  C     -107.756    -125.066     113.716
  C     -107.635    -125.478     112.406
  C     -106.322    -125.453     111.805
  O     -106.081    -125.678     110.616
  N     -108.863    -125.737     111.840
  C     -109.725    -125.457     112.800
  N     -109.100    -125.014     113.946
  O     -115.494    -124.398     112.677
  O     -113.475    -125.561     111.732
  H     -108.348    -122.246     114.761
  H     -113.460    -124.664     111.336
  H     -104.423    -124.878     112.283
  H     -110.803    -125.525     112.710
  H     -109.158    -124.727     115.968
  H     -110.464    -122.712     114.050
  H     -103.634    -123.962     114.220
  H     -111.962    -122.080     115.674
  H     -104.713    -123.631     115.530
  H     -112.498    -124.673     116.648
  H     -114.008    -123.609     115.063
  H     -112.760    -123.549     113.807
  P     -110.500    -121.306     118.023
  C     -108.182    -120.298     118.492
  O     -108.935    -121.205     117.698
  O     -110.520    -121.580     119.600
  O     -111.276    -120.068     117.707
  H     -110.795    -120.770     120.074
  H     -107.216    -120.118     118.002
  H     -108.004    -120.736     119.479
  H     -108.709    -119.346     118.602
  H     -115.005    -129.017     112.682
  H     -113.643    -128.244     113.457
  H     -113.875    -128.082     111.733

 3  4  5  6  7  8  9  10  11  12  23  26  30  31 0
 6-311+G(2d,p)
 ****
 33  35  36  37  38 0
 6-311+G(2d,p)
 ****
 1  2  13  14  15  16  17  18  19  20  21  22  24  25 0
 3-21G
 ****
 27  28  29  32  34  39  40  41  42  43  44  45  46  47  48  49 0
 3-21G
 ****


