%nproc=1
%NoSave
%Mem=1900MB
#P OB98/GEN NMR

erre ene a

0 1
  C      287.330    -438.042    -797.686
  O      287.805    -436.719    -797.839
  H      286.240    -438.022    -797.650
  H      287.709    -438.463    -796.745
  H      287.648    -438.664    -798.528
  P      289.385    -436.541    -798.092
  C      289.386    -435.084    -800.279
  O      289.548    -436.355    -799.677
  C      290.118    -435.016    -801.614
  O      291.540    -434.853    -801.361
  C      289.942    -436.271    -802.483
  O      289.903    -435.875    -803.854
  C      291.218    -437.055    -802.221
  O      291.511    -437.968    -803.282
  C      292.234    -435.921    -802.038
  N      293.424    -436.341    -801.298
  C      294.091    -437.481    -801.765
  O      293.665    -438.087    -802.754
  N      295.190    -437.937    -801.085
  C      295.557    -437.341    -799.989
  N      296.643    -437.852    -799.346
  C      294.866    -436.160    -799.435
  C      293.819    -435.715    -800.133
  O      289.924    -438.026    -797.827
  O      290.032    -435.489    -797.256
  H      291.438    -437.487    -804.135
  H      289.380    -438.714    -798.239
  H      295.201    -435.711    -798.511
  H      293.255    -434.856    -799.807
  H      292.564    -435.531    -803.013
  H      291.128    -437.631    -801.296
  H      289.037    -436.831    -802.225
  H      289.785    -434.118    -802.156
  H      297.078    -438.673    -799.751
  H      289.762    -434.298    -799.615
  H      296.982    -437.508    -798.461
  H      288.310    -434.914    -800.424
  P      288.543    -436.050    -804.688
  C      287.547    -433.689    -805.051
  O      287.517    -434.890    -804.281
  O      287.976    -437.428    -804.705
  O      288.986    -435.611    -806.166
  H      288.561    -436.227    -806.799
  H      286.816    -433.005    -804.674
  H      287.329    -433.916    -806.074
  H      288.519    -433.246    -804.983

 6  7  8  9  10  11  12  13  14  15  16  26  30  31  32  33  35 0
 6-311+G(2d,p)
 ****
 37  38 0
 6-311+G(2d,p)
 ****
 1  2  3  4  5  17  18  19  20  21  22  23  24  25 0
 3-21G
 ****
 27  28  29  34  36  39  40  41  42  43  44  45  46 0
 3-21G
 ****


