%nproc=1
%NoSave
%Mem=1900MB
#P OB98/GEN NMR

erre ene a

0 1
  C      217.044     -72.927    -225.548
  O      217.764     -72.944    -226.784
  P      217.470     -71.761    -227.825
  C      216.288     -73.272    -229.589
  O      216.190     -72.162    -228.702
  C      214.949     -74.012    -229.657
  O      213.848     -73.088    -229.714
  C      214.810     -74.878    -230.896
  O      215.531     -76.084    -230.743
  C      213.299     -75.070    -230.978
  O      212.869     -76.232    -230.246
  C      212.747     -73.776    -230.330
  N      212.051     -72.924    -231.280
  C      210.660     -73.071    -231.328
  O      210.097     -73.896    -230.608
  N      209.950     -72.293    -232.203
  C      210.578     -71.464    -232.985
  N      209.819     -70.724    -233.839
  C      212.044     -71.304    -232.986
  C      212.715     -72.059    -232.117
  O      218.681     -71.879    -228.866
  O      217.408     -70.404    -227.199
  H      211.891     -76.185    -230.232
  H      218.924     -70.997    -229.205
  H      212.523     -70.606    -233.661
  H      213.797     -72.010    -232.049
  H      212.045     -74.027    -229.522
  H      212.969     -75.210    -232.012
  H      215.160     -74.331    -231.778
  H      214.844     -74.626    -228.753
  H      208.817     -70.862    -233.812
  H      217.072     -73.953    -229.251
  H      210.204     -70.054    -234.495
  H      216.589     -72.910    -230.577
  P      216.972     -76.188    -231.433
  C      216.172     -78.326    -232.608
  O      216.736     -77.034    -232.770
  O      217.723     -77.245    -230.492
  O      217.748     -74.919    -231.578
  H      218.656     -77.323    -230.760
  H      215.875     -78.705    -233.583
  H      215.286     -78.277    -231.963
  H      216.913     -79.001    -232.173
  H      217.336     -73.767    -224.954
  H      215.994     -72.978    -225.746
  H      217.264     -72.023    -225.020

 3  4  5  6  7  8  9  10  11  12  13  21  23  27  28  29  30  32 0
 6-311+G(2d,p)
 ****
 34  35 0
 6-311+G(2d,p)
 ****
 1  2  14  15  16  17  18  19  20  22  24  25  26 0
 3-21G
 ****
 31  33  36  37  38  39  40  41  42  43  44  45  46 0
 3-21G
 ****


