%nproc=1
%NoSave
%Mem=1900MB
#P OB98/GEN NMR

erre ene a

0 1
  C     -506.508    -263.607    -498.014
  O     -507.718    -263.948    -497.364
  H     -505.696    -263.644    -497.284
  H     -506.571    -262.595    -498.424
  H     -506.297    -264.324    -498.813
  P     -509.047    -263.920    -498.262
  C     -510.723    -263.077    -496.475
  O     -510.238    -264.188    -497.217
  C     -511.550    -263.551    -495.282
  O     -512.712    -264.270    -495.733
  C     -510.808    -264.492    -494.337
  O     -510.019    -263.748    -493.419
  C     -511.972    -265.178    -493.638
  O     -512.477    -264.327    -492.592
  C     -513.017    -265.302    -494.762
  N     -514.802    -270.111    -494.614
  C     -514.802    -269.131    -493.690
  N     -514.262    -267.897    -493.774
  C     -513.679    -267.711    -494.973
  C     -513.600    -268.626    -496.014
  C     -514.202    -269.878    -495.804
  N     -514.197    -270.880    -496.749
  N     -512.925    -268.086    -497.090
  C     -512.656    -266.849    -496.725
  N     -513.058    -266.584    -495.442
  O     -509.028    -264.785    -499.476
  O     -509.190    -262.350    -498.549
  H     -511.782    -264.276    -491.907
  H     -508.973    -261.837    -497.750
  H     -515.301    -269.366    -492.756
  H     -512.191    -266.101    -497.359
  H     -514.032    -265.111    -494.391
  H     -511.683    -266.120    -493.171
  H     -510.225    -265.238    -494.882
  H     -511.909    -262.661    -494.745
  H     -511.335    -262.431    -497.117
  H     -514.477    -271.800    -496.446
  H     -513.637    -270.745    -497.581
  H     -509.855    -262.502    -496.134
  P     -508.481    -264.125    -493.157
  C     -509.098    -264.086    -490.661
  O     -508.187    -263.635    -491.657
  O     -507.536    -263.634    -494.201
  O     -508.481    -265.716    -493.020
  H     -507.572    -266.063    -493.126
  H     -508.804    -263.699    -489.708
  H     -509.091    -265.156    -490.630
  H     -510.083    -263.742    -490.897

 6  7  8  9  10  11  12  13  14  15  25  28  32  33  34  35 0
 6-311+G(2d,p)
 ****
 36  39  40 0
 6-311+G(2d,p)
 ****
 1  2  3  4  5  16  17  18  19  20  21  22  23  24 0
 3-21G
 ****
 26  27  29  30  31  37  38  41  42  43  44  45  46  47 0
 3-21G
 ****
 48 0
 3-21G
 ****


