%nproc=1
%NoSave
%Mem=1900MB
#P OB98/GEN NMR

erre ene a

0 1
  C      -84.023    -785.978    -413.146
  O      -83.982    -785.746    -411.753
  H      -84.468    -785.104    -413.633
  H      -84.649    -786.851    -413.363
  H      -83.017    -786.132    -413.532
  P      -83.425    -786.938    -410.836
  C      -84.477    -788.679    -409.215
  O      -84.689    -787.579    -410.091
  C      -84.972    -788.326    -407.811
  O      -84.168    -787.257    -407.267
  C      -86.410    -787.826    -407.772
  O      -87.351    -788.884    -407.854
  C      -86.429    -787.118    -406.419
  O      -86.672    -788.049    -405.352
  C      -85.006    -786.534    -406.329
  N      -84.983    -785.089    -406.583
  C      -85.542    -784.296    -405.574
  O      -86.015    -784.754    -404.532
  N      -85.557    -782.955    -405.823
  C      -85.136    -782.333    -406.977
  O      -85.243    -781.130    -407.160
  C      -84.545    -783.226    -407.984
  C      -84.509    -784.543    -407.762
  O      -82.645    -786.164    -409.662
  O      -82.550    -787.924    -411.541
  H      -81.684    -786.204    -409.825
  H      -86.505    -787.565    -404.519
  H      -85.969    -782.361    -405.110
  H      -84.190    -782.769    -408.908
  H      -84.106    -785.220    -408.504
  H      -84.575    -786.703    -405.333
  H      -87.214    -786.371    -406.363
  H      -86.570    -787.076    -408.557
  H      -84.851    -789.212    -407.168
  H      -83.410    -788.909    -409.168
  H      -85.012    -789.553    -409.610
  P      -88.585    -788.728    -408.875
  C      -90.910    -787.510    -408.758
  O      -89.654    -787.775    -408.154
  O      -89.239    -790.188    -408.790
  O      -88.180    -788.297    -410.253
  H      -89.180    -790.582    -407.903
  H      -91.478    -786.858    -408.128
  H      -91.442    -788.429    -408.893
  H      -90.757    -787.043    -409.709

 6  7  8  9  10  11  12  13  14  15  16  27  31  32  33  34  35 0
 6-311+G(2d,p)
 ****
 36  37 0
 6-311+G(2d,p)
 ****
 1  2  3  4  5  17  18  19  20  21  22  23  24  25 0
 3-21G
 ****
 26  28  29  30  38  39  40  41  42  43  44  45 0
 3-21G
 ****


