%nproc=1
%NoSave
%Mem=1900MB
#P OB98/GEN NMR

erre ene a

0 1
  C      626.061    -908.641      -6.541
  O      627.047    -907.881      -5.865
  H      626.529    -909.511      -6.996
  H      625.628    -908.018      -7.335
  H      625.275    -908.964      -5.856
  P      626.547    -906.787      -4.814
  C      626.792    -906.589      -2.231
  O      627.363    -907.050      -3.451
  C      627.338    -907.398      -1.050
  O      626.815    -908.757      -1.122
  C      628.869    -907.498      -1.020
  O      629.313    -907.447       0.351
  C      629.137    -908.884      -1.554
  O      630.402    -909.397      -1.137
  C      627.940    -909.636      -0.981
  N      627.545    -914.591      -0.230
  C      627.568    -913.546       0.665
  N      627.530    -913.860       1.986
  N      627.604    -912.285       0.311
  C      627.626    -912.102      -1.028
  C      627.628    -913.048      -2.023
  C      627.587    -914.441      -1.621
  O      627.599    -915.425      -2.371
  N      627.706    -912.468      -3.265
  C      627.782    -911.160      -3.016
  N      627.738    -910.909      -1.671
  O      625.059    -907.281      -4.462
  O      626.557    -905.374      -5.300
  H      631.091    -908.810      -1.498
  H      624.414    -906.819      -5.024
  H      627.536    -915.545       0.103
  H      627.887    -910.393      -3.756
  H      628.061    -909.874       0.088
  H      629.113    -908.875      -2.642
  H      627.459    -914.800       2.337
  H      629.380    -906.712      -1.589
  H      627.491    -913.105       2.648
  H      626.961    -906.955      -0.125
  H      625.696    -906.729      -2.282
  H      627.012    -905.522      -2.104
  P      630.105    -906.149       0.854
  C      629.746    -904.744       3.012
  O      629.967    -906.031       2.439
  O      629.212    -904.934       0.301
  O      631.501    -906.052       0.328
  H      629.776    -904.190       0.053
  H      629.677    -904.834       4.076
  H      628.835    -904.335       2.629
  H      630.561    -904.097       2.761

 6  7  8  9  10  11  12  13  14  15  26  29  33  34 0
 6-311+G(2d,p)
 ****
 36  38  39  40  41 0
 6-311+G(2d,p)
 ****
 1  2  3  4  5  16  17  18  19  20  21  22  23  24  25 0
 3-21G
 ****
 27  28  30  31  32  35  37  42  43  44  45  46  47 0
 3-21G
 ****
 48  49 0
 3-21G
 ****


