%nproc=1
%NoSave
%Mem=1900MB
#P OB98/GEN NMR

erre ene a

0 1
  C      241.027     895.041      84.558
  O      241.147     894.274      83.382
  P      240.047     894.386      82.228
  C      239.985     891.828      81.888
  O      240.183     893.098      81.271
  C      240.334     890.696      80.916
  O      239.438     890.697      79.771
  C      241.738     890.794      80.336
  O      242.731     890.464      81.279
  C      241.617     889.850      79.146
  O      241.763     888.470      79.575
  C      240.167     890.112      78.677
  N      240.119     890.935      77.482
  C      239.943     890.243      76.271
  O      239.934     889.018      76.242
  N      239.794     890.979      75.119
  C      239.925     892.274      75.156
  N      239.699     892.962      74.004
  C      240.268     893.018      76.384
  C      240.317     892.299      77.506
  O      239.998     895.698      81.504
  O      238.659     894.113      82.992
  H      238.023     894.801      82.751
  H      242.683     888.385      79.943
  H      240.422     894.106      76.358
  H      240.536     892.760      78.471
  H      239.667     889.154      78.478
  H      242.383     890.030      78.388
  H      241.901     891.822      79.962
  H      240.208     889.750      81.453
  H      239.472     892.424      73.174
  H      238.924     891.743      82.188
  H      239.462     893.946      73.977
  H      240.612     891.768      82.783
  P      243.537     891.688      81.964
  C      245.842     890.584      81.560
  O      244.918     891.111      82.500
  O      242.690     891.988      83.289
  O      243.653     892.917      81.105
  H      242.684     892.960      83.477
  H      246.841     890.575      82.038
  H      245.888     891.209      80.661
  H      245.562     889.572      81.296
  H      241.852     894.831      85.206
  H      240.112     894.793      85.054
  H      241.026     896.081      84.307

 3  4  5  6  7  8  9  10  11  12  13  24  27  28  29  30  32 0
 6-311+G(2d,p)
 ****
 34  35 0
 6-311+G(2d,p)
 ****
 1  2  14  15  16  17  18  19  20  21  22  23  25  26 0
 3-21G
 ****
 31  33  36  37  38  39  40  41  42  43  44  45  46 0
 3-21G
 ****


