%nproc=1
%NoSave
%Mem=1900MB
#P OB98/GEN NMR

erre ene a

0 1
  C     -387.671     190.800    -180.402
  O     -387.708     189.889    -179.328
  H     -387.023     191.640    -180.132
  H     -388.677     191.187    -180.605
  H     -387.273     190.321    -181.300
  P     -388.584     188.557    -179.541
  C     -390.916     187.806    -178.659
  O     -390.054     188.893    -178.990
  C     -391.255     187.851    -177.177
  O     -390.058     187.604    -176.401
  C     -391.785     189.195    -176.695
  O     -393.156     189.370    -177.015
  C     -391.520     189.101    -175.198
  O     -392.558     188.385    -174.522
  C     -390.212     188.300    -175.139
  N     -387.984     191.388    -171.750
  C     -389.100     190.630    -171.683
  N     -389.618     189.816    -172.631
  C     -388.847     189.827    -173.733
  C     -387.690     190.555    -173.952
  C     -387.252     191.369    -172.888
  N     -386.140     192.174    -172.969
  N     -387.208     190.342    -175.225
  C     -388.057     189.489    -175.766
  N     -389.062     189.149    -174.904
  O     -387.986     187.556    -178.443
  O     -388.530     187.977    -180.915
  H     -392.305     188.348    -173.581
  H     -387.302     186.990    -178.850
  H     -389.651     190.680    -170.749
  H     -387.997     189.096    -176.777
  H     -390.223     187.540    -174.353
  H     -391.453     190.094    -174.741
  H     -391.183     190.014    -177.114
  H     -391.972     187.050    -176.956
  H     -390.405     186.863    -178.887
  H     -391.825     187.878    -179.272
  H     -385.897     192.748    -172.179
  H     -385.651     192.242    -173.851
  P     -393.744     190.855    -177.069
  C     -395.455     192.152    -175.594
  O     -394.452     191.154    -175.657
  O     -394.970     190.734    -178.086
  O     -392.760     191.908    -177.495
  H     -394.712     191.060    -178.968
  H     -395.822     192.226    -174.592
  H     -396.259     191.891    -176.250
  H     -395.042     193.092    -175.893

 6  7  8  9  10  11  12  13  14  15  25  28  32  33  34  35 0
 6-311+G(2d,p)
 ****
 36  37  40 0
 6-311+G(2d,p)
 ****
 1  2  3  4  5  16  17  18  19  20  21  22  23  24 0
 3-21G
 ****
 26  27  29  30  31  38  39 41  42  43  44  45  46  47  48 0
 3-21G
 ****


