%nproc=1
%NoSave
%Mem=1900MB
#P OB98/GEN NMR

erre ene a

0 1
  C      104.134      39.907      39.440
  O      105.298      39.339      40.007
  H      103.433      39.103      39.204
  H      104.380      40.443      38.519
  H      103.664      40.588      40.155
  P      106.476      40.357      40.394
  C      105.933      40.521      42.908
  O      105.895      41.179      41.647
  C      107.118      41.020      43.736
  O      106.793      42.331      44.263
  C      107.457      40.112      44.922
  O      108.874      40.060      45.082
  C      106.838      40.831      46.108
  O      107.483      40.507      47.337
  C      106.971      42.293      45.690
  N      105.575      44.312      50.163
  C      106.680      43.637      49.781
  N      106.980      43.146      48.560
  C      106.017      43.458      47.674
  C      104.836      44.136      47.915
  C      104.622      44.570      49.235
  N      103.488      45.237      49.637
  N      104.083      44.220      46.759
  C      104.804      43.615      45.835
  N      105.973      43.123      46.344
  O      107.007      41.189      39.275
  O      107.536      39.379      41.085
  H      107.362      39.550      47.506
  H      107.102      38.753      41.693
  H      107.418      43.460      50.560
  H      104.519      43.495      44.795
  H      107.954      42.713      45.932
  H      105.781      40.547      46.198
  H      107.061      39.105      44.804
  H      107.981      41.150      43.073
  H      106.017      39.438      42.765
  H      103.423      45.526      50.601
  H      102.775      45.453      48.957
  H      104.993      40.732      43.427
  P      109.567      38.627      45.280
  C      110.350      37.988      42.905
  O      109.383      37.780      43.929
  O      109.228      37.906      46.542
  O      111.129      38.992      45.238
  H      111.602      38.428      45.880
  H      110.117      37.370      42.064
  H      111.322      37.735      43.275
  H      110.338      39.015      42.607

 6  7  8  9  10  11  12  13  14  15  25  28  32  33  34  35 0
 6-311+G(2d,p)
 ****
 36  39  40 0
 6-311+G(2d,p)
 ****
 1  2  3  4  5  16  17  18  19  20  21  22  23  24 0
 3-21G
 ****
 26  27  29  30  31  37  38  41  42  43  44  45  46  47 0
 3-21G
 ****
 48 0
 3-21G
 ****


