%nproc=1
%NoSave
%Mem=1900MB
#P OB98/GEN NMR

erre ene a

0 1
  C      131.182      47.989     126.968
  O      129.774      48.105     127.112
  P      128.842      46.982     126.445
  C      128.161      48.621     124.505
  O      128.694      47.365     124.893
  C      127.539      48.527     123.107
  O      126.851      49.773     122.815
  C      128.553      48.285     121.977
  O      127.909      47.452     121.001
  C      128.778      49.681     121.422
  O      129.272      49.670     120.092
  C      127.371      50.276     121.565
  N      127.353      51.740     121.555
  C      127.849      52.392     120.428
  O      128.323      51.805     119.449
  N      127.816      53.763     120.470
  C      127.406      54.529     121.518
  O      127.414      55.752     121.505
  C      126.936      53.790     122.699
  C      126.923      52.452     122.663
  O      127.419      47.345     127.079
  O      129.309      45.589     126.700
  H      127.289      48.304     127.188
  H      129.791      48.855     119.970
  H      128.137      54.253     119.644
  H      126.619      54.364     123.563
  H      126.580      51.887     123.521
  H      126.719      49.896     120.771
  H      129.504      50.209     122.052
  H      129.471      47.803     122.331
  H      126.782      47.732     123.120
  H      128.960      49.362     124.493
  H      127.414      48.939     125.244
  P      128.745      46.222     120.386
  C      129.070      47.567     118.161
  O      129.646      46.802     119.194
  O      127.569      45.449     119.600
  O      129.431      45.355     121.394
  H      127.032      46.043     119.050
  H      129.862      48.134     117.658
  H      128.330      48.271     118.549
  H      128.598      46.904     117.429
  H      131.660      48.808     127.464
  H      131.437      48.004     125.929
  H      131.510      47.068     127.402

 3  4  5  6  7  8  9  10  11  12  13  24  28  29  30  31  32 0
 6-311+G(2d,p)
 ****
 33  34 0
 6-311+G(2d,p)
 ****
 1  2  14  15  16  17  18  19  20  21  22  23  25  26  27 0
 3-21G
 ****
 35  36  37  38  39  40  41  42  43  44  45 0
 3-21G
 ****


