%nproc=1
%NoSave
%Mem=1900MB
#P OB98/GEN NMR

erre ene a

0 1
  C       22.574     -39.075      24.381
  O       21.999     -40.047      25.244
  P       20.687     -39.643      26.074
  C       21.466     -37.732      27.644
  O       21.184     -39.118      27.508
  C       22.297     -37.457      28.896
  O       22.713     -36.065      28.891
  C       21.559     -37.705      30.216
  O       22.529     -38.164      31.165
  C       21.094     -36.317      30.614
  O       20.808     -36.222      32.007
  C       22.283     -35.485      30.142
  N       22.340     -30.830      32.253
  C       22.793     -32.022      32.695
  N       22.743     -33.218      32.074
  C       22.147     -33.106      30.875
  C       21.604     -31.966      30.308
  C       21.720     -30.778      31.050
  N       21.269     -29.560      30.598
  N       21.052     -32.252      29.077
  C       21.257     -33.541      28.904
  N       21.936     -34.093      29.952
  O       20.030     -41.064      26.404
  O       19.730     -38.753      25.359
  H       20.504     -35.314      32.195
  H       19.194     -41.167      25.908
  H       23.266     -32.012      33.673
  H       20.935     -34.115      28.047
  H       23.126     -35.532      30.843
  H       20.183     -36.059      30.063
  H       20.734     -38.420      30.140
  H       23.208     -38.066      28.846
  H       20.520     -37.189      27.725
  H       21.510     -28.736      31.123
  H       20.979     -29.476      29.629
  H       21.994     -37.377      26.753
  P       22.305     -39.626      31.784
  C       21.746     -38.554      34.078
  O       22.523     -39.495      33.363
  O       23.592     -40.439      31.286
  O       21.036     -40.284      31.351
  H       23.379     -41.387      31.214
  H       21.550     -38.946      35.080
  H       20.791     -38.354      33.583
  H       22.306     -37.619      34.166
  H       23.436     -39.490      23.901
  H       22.862     -38.217      24.952
  H       21.857     -38.787      23.641

 3  4  5  6  7  8  9  10  11  12  22  25  29  30  31  32 0
 6-311+G(2d,p)
 ****
 33  36  37 0
 6-311+G(2d,p)
 ****
 1  2  13  14  15  16  17  18  19  20  21  23  24  26 0
 3-21G
 ****
 27  28  34  35  38  39  40  41  42  43  44  45  46  47  48 0
 3-21G
 ****


