%nproc=1
%NoSave
%Mem=1900MB
#P OB98/GEN NMR

erre ene a

0 1
  C      -86.663    -382.078     215.286
  O      -85.599    -381.501     214.552
  H      -87.473    -381.349     215.359
  H      -86.328    -382.335     216.294
  H      -87.035    -382.971     214.777
  P      -84.310    -382.424     214.312
  C      -83.045    -380.346     215.228
  O      -83.042    -381.442     214.325
  C      -81.888    -379.408     214.905
  O      -80.632    -380.077     215.168
  C      -81.823    -378.988     213.445
  O      -82.756    -377.967     213.135
  C      -80.373    -378.544     213.328
  O      -80.201    -377.195     213.783
  C      -79.650    -379.517     214.263
  N      -75.291    -380.880     211.980
  C      -75.630    -379.789     212.701
  N      -76.812    -379.505     213.287
  C      -77.687    -380.509     213.096
  C      -77.484    -381.682     212.389
  C      -76.216    -381.856     211.814
  N      -75.877    -382.954     211.060
  N      -78.633    -382.447     212.381
  C      -79.510    -381.757     213.075
  N      -78.983    -380.580     213.533
  O      -84.449    -382.849     212.775
  O      -84.205    -383.611     215.210
  H      -80.557    -377.166     214.693
  H      -84.819    -383.750     212.719
  H      -74.853    -379.039     212.811
  H      -80.533    -382.058     213.271
  H      -78.890    -379.019     214.875
  H      -80.034    -378.591     212.294
  H      -81.977    -379.859     212.794
  H      -81.950    -378.529     215.562
  H      -82.933    -380.718     216.253
  H      -84.001    -379.819     215.147
  H      -74.972    -382.983     210.619
  H      -76.594    -383.633     210.833
  P      -84.100    -378.389     212.373
  C      -84.214    -376.090     211.151
  O      -84.867    -377.040     211.980
  O      -85.012    -379.023     213.529
  O      -83.899    -379.341     211.241
  H      -85.537    -379.763     213.170
  H      -84.862    -375.254     210.987
  H      -83.972    -376.543     210.212
  H      -83.316    -375.757     211.629

 6  7  8  9  10  11  12  13  14  15  25  28  32  33  34  35 0
 6-311+G(2d,p)
 ****
 36  37  40 0
 6-311+G(2d,p)
 ****
 1  2  3  4  5  16  17  18  19  20  21  22  23  24 0
 3-21G
 ****
 26  27  29  30  31  38  39 41  42  43  44  45  46  47  48 0
 3-21G
 ****


