%nproc=1
%NoSave
%Mem=1900MB
#P OB98/GEN NMR

erre ene a

0 1
  C      -37.552      11.469    -357.024
  O      -37.986      12.693    -356.469
  H      -38.276      10.685    -356.793
  H      -37.488      11.578    -358.110
  H      -36.567      11.193    -356.638
  P      -37.866      12.861    -354.878
  C      -36.381      14.989    -354.934
  O      -36.470      13.611    -354.607
  C      -34.929      15.460    -354.878
  O      -34.124      14.574    -355.708
  C      -34.709      16.897    -355.375
  O      -33.723      17.517    -354.545
  C      -34.133      16.701    -356.764
  O      -33.340      17.802    -357.192
  C      -33.342      15.410    -356.580
  N      -31.237      16.065    -361.161
  C      -31.097      16.738    -360.001
  N      -31.657      16.463    -358.805
  C      -32.373      15.327    -358.866
  C      -32.601      14.530    -359.974
  C      -32.006      14.950    -361.175
  N      -32.197      14.311    -362.379
  N      -33.438      13.480    -359.648
  C      -33.730      13.658    -358.374
  N      -33.111      14.762    -357.859
  O      -37.586      11.360    -354.395
  O      -39.055      13.453    -354.201
  H      -32.976      17.605    -358.078
  H      -38.433      10.900    -354.249
  H      -30.463      17.620    -360.037
  H      -34.400      13.042    -357.791
  H      -32.363      15.577    -356.113
  H      -34.949      16.563    -357.484
  H      -35.622      17.506    -355.382
  H      -34.567      15.347    -353.849
  H      -36.968      15.566    -354.211
  H      -31.818      14.746    -363.207
  H      -32.853      13.546    -362.426
  H      -36.795      15.151    -355.933
  P      -34.239      18.536    -353.420
  C      -33.302      17.075    -351.479
  O      -34.430      17.729    -352.051
  O      -35.741      18.854    -353.874
  O      -33.422      19.782    -353.311
  H      -35.981      19.767    -353.634
  H      -33.595      16.585    -350.574
  H      -32.542      17.797    -351.264
  H      -32.921      16.351    -352.169

 6  7  8  9  10  11  12  13  14  15  25  28  32  33  34  35 0
 6-311+G(2d,p)
 ****
 36  39  40 0
 6-311+G(2d,p)
 ****
 1  2  3  4  5  16  17  18  19  20  21  22  23  24 0
 3-21G
 ****
 26  27  29  30  31  37  38  41  42  43  44  45  46  47 0
 3-21G
 ****
 48 0
 3-21G
 ****


