%nproc=1
%NoSave
%Mem=1900MB
#P OB98/GEN NMR

erre ene a

0 1
  C      -22.778    -597.860      -5.588
  O      -23.899    -597.578      -6.401
  H      -22.660    -597.086      -4.827
  H      -22.935    -598.822      -5.089
  H      -21.873    -597.925      -6.200
  P      -23.862    -596.191      -7.207
  C      -24.542    -597.381      -9.403
  O      -24.848    -596.359      -8.467
  C      -25.824    -597.977      -9.968
  O      -26.532    -598.640      -8.884
  C      -26.777    -596.946     -10.600
  O      -27.187    -597.366     -11.902
  C      -27.991    -596.951      -9.682
  O      -29.212    -596.732     -10.377
  C      -27.925    -598.336      -9.049
  N      -32.525    -598.614      -6.866
  C      -32.101    -598.949      -8.100
  N      -30.846    -598.947      -8.593
  C      -29.972    -598.567      -7.645
  C      -30.242    -598.215      -6.335
  C      -31.601    -598.228      -5.958
  N      -32.035    -597.824      -4.712
  N      -29.084    -597.874      -5.660
  C      -28.132    -597.973      -6.561
  N      -28.621    -598.379      -7.780
  O      -22.402    -596.187      -7.865
  O      -24.089    -594.981      -6.364
  H      -29.936    -596.927      -9.751
  H      -21.906    -595.419      -7.525
  H      -32.878    -599.266      -8.796
  H      -27.087    -597.731      -6.403
  H      -28.360    -599.102      -9.704
  H      -27.871    -596.163      -8.926
  H      -26.329    -595.944     -10.662
  H      -25.564    -598.753     -10.698
  H      -23.963    -598.170      -8.907
  H      -33.030    -597.754      -4.564
  H      -31.365    -597.428      -4.069
  H      -23.930    -596.956     -10.206
  P      -26.602    -596.520     -13.141
  C      -26.683    -598.471     -14.853
  O      -27.156    -597.174     -14.498
  O      -25.043    -596.890     -13.133
  O      -26.814    -595.044     -13.010
  H      -24.509    -596.080     -13.065
  H      -27.135    -598.776     -15.774
  H      -26.939    -599.167     -14.082
  H      -25.620    -598.443     -14.970

 6  7  8  9  10  11  12  13  14  15  25  28  32  33  34  35 0
 6-311+G(2d,p)
 ****
 36  39  40 0
 6-311+G(2d,p)
 ****
 1  2  3  4  5  16  17  18  19  20  21  22  23  24 0
 3-21G
 ****
 26  27  29  30  31  37  38  41  42  43  44  45  46  47  48 0
 3-21G
 ****


