%nproc=1
%NoSave
%Mem=1900MB
#P OB98/GEN NMR

erre ene a

0 1
  C      -42.085    -104.560     108.664
  O      -40.692    -104.381     108.943
  P      -39.678    -105.623     109.016
  C      -37.518    -104.353     108.455
  O      -38.207    -105.124     109.434
  C      -37.990    -102.893     108.395
  O      -37.909    -102.265     109.703
  C      -37.203    -101.998     107.428
  O      -38.132    -101.024     106.947
  C      -36.182    -101.354     108.350
  O      -35.601    -100.174     107.815
  C      -37.035    -101.125     109.593
  N      -33.170     -98.572     111.773
  C      -33.852     -98.360     110.628
  N      -34.891     -99.060     110.133
  C      -35.247    -100.048     110.970
  C      -34.652    -100.379     112.176
  C      -33.553     -99.596     112.572
  N      -32.824     -99.835     113.714
  N      -35.270    -101.477     112.743
  C      -36.214    -101.806     111.885
  N      -36.244    -100.971     110.799
  O      -39.698    -106.503     107.808
  O      -40.162    -106.450     110.299
  H      -35.042    -100.424     107.058
  H      -40.194    -107.400     110.074
  H      -33.513     -97.522     110.026
  H      -36.888    -102.647     111.987
  H      -37.664    -100.233     109.486
  H      -35.370    -102.066     108.541
  H      -36.746    -102.546     106.601
  H      -39.052    -102.903     108.121
  H      -37.666    -104.822     107.476
  H      -31.998     -99.278     113.864
  H      -33.014    -100.667     114.252
  H      -36.445    -104.381     108.679
  P      -38.875    -101.192     105.539
  C      -41.412    -100.928     105.721
  O      -40.173    -100.257     105.590
  O      -39.137    -102.603     105.131
  O      -37.922    -100.445     104.489
  H      -38.131    -100.749     103.587
  H      -41.696    -101.366     104.760
  H      -42.176    -100.208     106.024
  H      -41.351    -101.717     106.477
  H      -42.574    -103.608     108.662
  H      -42.522    -105.184     109.415
  H      -42.200    -105.022     107.706

 3  4  5  6  7  8  9  10  11  12  22  25  29  30  31  32 0
 6-311+G(2d,p)
 ****
 33  36  37 0
 6-311+G(2d,p)
 ****
 1  2  13  14  15  16  17  18  19  20  21  23  24  26 0
 3-21G
 ****
 27  28  34  35  38  39  40  41  42  43  44  45  46  47  48 0
 3-21G
 ****


