%nproc=1
%NoSave
%Mem=1900MB
#P OB98/GEN NMR

erre ene a

0 1
  C     -143.983    -134.391     363.383
  O     -143.060    -135.035     364.258
  P     -141.491    -134.827     363.965
  C     -140.619    -137.092     363.029
  O     -141.156    -135.806     362.730
  C     -141.734    -138.081     363.342
  O     -142.605    -138.226     362.195
  C     -141.258    -139.492     363.670
  O     -140.849    -139.618     365.023
  C     -142.536    -140.287     363.432
  O     -143.423    -140.155     364.557
  C     -143.130    -139.584     362.206
  N     -145.013    -142.132     358.187
  C     -145.601    -141.676     359.321
  N     -145.021    -141.018     360.356
  C     -143.704    -140.868     360.148
  C     -142.967    -141.315     359.062
  C     -143.676    -141.969     358.035
  N     -143.087    -142.404     356.876
  N     -141.636    -140.989     359.204
  C     -141.566    -140.343     360.353
  N     -142.796    -140.232     360.954
  O     -140.794    -135.546     365.215
  O     -141.057    -133.408     363.809
  H     -142.877    -140.281     365.365
  H     -139.898    -135.184     365.340
  H     -146.666    -141.861     359.410
  H     -140.664    -139.922     360.776
  H     -144.222    -139.509     362.256
  H     -142.347    -141.363     363.302
  H     -140.479    -139.825     362.973
  H     -142.334    -137.677     364.169
  H     -139.963    -137.013     363.907
  H     -143.695    -142.691     356.109
  H     -142.138    -142.098     356.676
  H     -140.027    -137.438     362.181
  P     -139.795    -140.783     365.356
  C     -140.784    -142.959     366.400
  O     -140.615    -142.153     365.245
  O     -139.547    -140.610     366.930
  O     -138.522    -140.703     364.567
  H     -138.670    -140.960     367.174
  H     -141.595    -143.654     366.230
  H     -141.015    -142.346     367.281
  H     -139.858    -143.528     366.586
  H     -144.983    -134.614     363.693
  H     -143.832    -134.743     362.384
  H     -143.827    -133.333     363.416

 3  4  5  6  7  8  9  10  11  12  22  25  29  30  31  32 0
 6-311+G(2d,p)
 ****
 33  36  37 0
 6-311+G(2d,p)
 ****
 1  2  13  14  15  16  17  18  19  20  21  23  24  26 0
 3-21G
 ****
 27  28  34  35  38  39  40  41  42  43  44  45  46  47  48 0
 3-21G
 ****


