%nproc=1
%NoSave
%Mem=1900MB
#P OB98/GEN NMR

erre ene a

0 1
  C     -222.802      -4.298    -155.275
  O     -223.046      -2.927    -155.511
  H     -222.366      -4.736    -156.177
  H     -223.739      -4.815    -155.055
  H     -222.100      -4.433    -154.449
  P     -223.496      -2.000    -154.282
  C     -225.786      -1.240    -155.190
  O     -225.097      -2.038    -154.236
  C     -225.932       0.186    -154.667
  O     -226.392       1.058    -155.720
  C     -226.942       0.332    -153.535
  O     -226.410      -0.148    -152.316
  C     -227.198       1.832    -153.577
  O     -226.148       2.548    -152.909
  C     -227.172       2.105    -155.100
  N     -228.506       2.186    -155.693
  C     -228.799       3.347    -156.401
  O     -228.014       4.288    -156.504
  N     -230.042       3.400    -156.973
  C     -231.025       2.463    -156.839
  O     -232.144       2.583    -157.329
  C     -230.671       1.274    -156.052
  C     -229.447       1.191    -155.525
  O     -222.899      -0.633    -154.248
  O     -223.079      -2.856    -152.995
  H     -226.423       3.485    -152.883
  H     -222.241      -2.517    -152.630
  H     -230.278       4.239    -157.479
  H     -231.427       0.512    -155.920
  H     -229.170       0.323    -154.937
  H     -226.650       3.048    -155.306
  H     -228.131       2.113    -153.089
  H     -227.873      -0.189    -153.787
  H     -224.940       0.535    -154.350
  H     -226.779      -1.671    -155.357
  H     -225.229      -1.253    -156.131
  P     -227.294      -1.051    -151.337
  C     -228.311       1.056    -150.295
  O     -228.585      -0.191    -150.919
  O     -226.557      -1.661    -150.191
  O     -227.906      -2.178    -152.295
  H     -227.452      -3.029    -152.136
  H     -229.232       1.546    -150.058
  H     -227.741       1.670    -150.960
  H     -227.754       0.890    -149.397

 6  7  8  9  10  11  12  13  14  15  16  26  31  32  33  34  35 0
 6-311+G(2d,p)
 ****
 36  37 0
 6-311+G(2d,p)
 ****
 1  2  3  4  5  17  18  19  20  21  22  23  24  25 0
 3-21G
 ****
 27  28  29  30  38  39  40  41  42  43  44  45 0
 3-21G
 ****


