%nproc=1
%NoSave
%Mem=1900MB
#P OB98/GEN NMR

erre ene a

0 1
  C      476.043    -325.994     230.891
  O      476.995    -325.052     230.434
  H      476.338    -326.983     230.540
  H      475.055    -325.752     230.488
  H      476.010    -325.997     231.985
  P      476.751    -323.522     230.861
  C      478.400    -323.775     232.865
  O      477.091    -323.435     232.425
  C      478.436    -323.901     234.395
  O      477.409    -324.861     234.800
  C      479.774    -324.426     234.947
  O      479.944    -323.893     236.270
  C      479.512    -325.920     235.031
  O      480.490    -326.565     235.819
  C      478.077    -325.896     235.560
  N      474.655    -329.057     237.688
  C      475.093    -327.821     238.049
  N      475.994    -327.040     237.424
  C      476.450    -327.630     236.310
  C      476.092    -328.874     235.802
  C      475.144    -329.596     236.557
  N      474.708    -330.856     236.194
  N      476.767    -329.141     234.628
  C      477.525    -328.079     234.424
  N      477.376    -327.144     235.417
  O      475.155    -323.381     230.810
  O      477.430    -322.498     230.008
  H      481.362    -326.577     235.350
  H      474.881    -323.014     229.950
  H      474.653    -327.422     238.958
  H      478.203    -327.939     233.588
  H      478.037    -325.613     236.627
  H      479.552    -326.380     234.041
  H      480.631    -324.148     234.332
  H      478.161    -322.935     234.840
  H      479.091    -322.986     232.547
  H      478.706    -324.728     232.415
  H      474.042    -331.320     236.793
  H      475.079    -331.291     235.363
  P      480.933    -322.640     236.488
  C      479.084    -320.835     236.907
  O      480.162    -321.287     236.097
  O      481.954    -322.804     235.250
  O      481.679    -322.622     237.788
  H      482.818    -322.419     235.488
  H      478.690    -319.926     236.502
  H      479.435    -320.659     237.902
  H      478.316    -321.579     236.926

 6  7  8  9  10  11  12  13  14  15  25  28  32  33  34  35 0
 6-311+G(2d,p)
 ****
 36  37  40 0
 6-311+G(2d,p)
 ****
 1  2  3  4  5  16  17  18  19  20  21  22  23  24 0
 3-21G
 ****
 26  27  29  30  31  38  39 41  42  43  44  45  46  47  48 0
 3-21G
 ****


