%nproc=1
%NoSave
%Mem=1900MB
#P OB98/GEN NMR

erre ene a

0 1
  C      511.622     274.859     657.421
  O      511.911     274.370     658.714
  P      511.849     275.409     659.932
  C      514.337     276.202     659.857
  O      512.959     276.532     659.650
  C      515.116     277.443     660.264
  O      515.186     278.372     659.165
  C      514.512     278.224     661.422
  O      514.736     277.575     662.658
  C      515.212     279.576     661.260
  O      516.548     279.487     661.797
  C      515.276     279.715     659.712
  N      513.499     284.497     659.156
  C      514.597     283.998     659.762
  N      515.002     282.720     659.890
  C      514.104     281.902     659.291
  C      512.940     282.239     658.662
  C      512.630     283.599     658.586
  N      511.500     284.092     657.974
  N      512.266     281.112     658.208
  C      513.055     280.109     658.540
  N      514.193     280.527     659.196
  O      512.457     274.585     661.166
  O      510.482     275.937     660.235
  H      516.907     280.394     661.842
  H      512.029     274.842     661.999
  H      515.265     284.758     660.206
  H      512.850     279.061     658.344
  H      516.207     280.151     659.364
  H      514.701     280.388     661.759
  H      513.430     278.351     661.269
  H      516.143     277.132     660.501
  H      514.760     275.796     658.916
  H      511.283     285.069     658.107
  H      510.781     283.434     657.688
  H      514.397     275.417     660.630
  P      513.642     277.747     663.814
  C      515.012     279.608     664.917
  O      513.795     279.280     664.281
  O      514.307     276.943     665.030
  O      512.253     277.322     663.414
  H      515.236     277.195     665.174
  H      514.999     280.684     665.123
  H      515.857     279.387     664.254
  H      515.107     279.066     665.854
  H      511.701     274.061     656.712
  H      512.318     275.631     657.168
  H      510.628     275.255     657.403

 3  4  5  6  7  8  9  10  11  12  22  25  29  30  31  32 0
 6-311+G(2d,p)
 ****
 33  36  37 0
 6-311+G(2d,p)
 ****
 1  2  13  14  15  16  17  18  19  20  21  23  24  26 0
 3-21G
 ****
 27  28  34  35  38  39  40  41  42  43  44  45  46  47  48 0
 3-21G
 ****


