%nproc=1
%NoSave
%Mem=1900MB
#P OB98/GEN NMR

erre ene a

0 1
  C     -371.580     720.669    -372.965
  O     -370.919     721.869    -373.293
  H     -371.567     720.547    -371.879
  H     -371.060     719.823    -373.422
  H     -372.622     720.683    -373.302
  P     -371.164     722.521    -374.732
  C     -373.516     723.560    -374.531
  O     -372.743     722.474    -375.024
  C     -374.312     724.249    -375.642
  O     -373.402     724.859    -376.593
  C     -375.158     723.266    -376.449
  O     -376.425     722.961    -375.888
  C     -375.314     723.999    -377.775
  O     -376.418     724.923    -377.727
  C     -373.988     724.753    -377.902
  N     -371.884     724.642    -382.565
  C     -372.884     725.469    -382.077
  N     -373.421     726.331    -382.957
  N     -373.311     725.429    -380.843
  C     -372.747     724.452    -380.094
  C     -371.759     723.565    -380.468
  C     -371.248     723.654    -381.825
  O     -370.371     722.943    -382.304
  N     -371.427     722.717    -379.443
  C     -372.262     723.044    -378.476
  N     -373.063     724.108    -378.817
  O     -370.596     721.414    -375.746
  O     -370.509     723.849    -374.960
  H     -376.559     725.276    -378.624
  H     -370.314     721.841    -376.577
  H     -371.570     724.736    -383.510
  H     -372.312     722.556    -377.501
  H     -374.140     725.774    -378.270
  H     -375.519     723.309    -378.602
  H     -373.208     726.315    -383.942
  H     -374.608     722.341    -376.629
  H     -374.325     726.757    -382.720
  H     -374.919     725.052    -375.213
  H     -372.820     724.264    -374.076
  H     -374.191     723.213    -373.740
  P     -377.122     721.552    -376.193
  C     -377.264     720.316    -373.908
  O     -376.559     720.504    -375.116
  O     -376.418     721.104    -377.563
  O     -378.602     721.597    -376.319
  H     -376.982     721.340    -378.320
  H     -376.757     719.589    -373.308
  H     -378.254     719.973    -374.123
  H     -377.315     721.244    -373.377

 6  7  8  9  10  11  12  13  14  15  26  29  33  34 0
 6-311+G(2d,p)
 ****
 36  38  39  40  41 0
 6-311+G(2d,p)
 ****
 1  2  3  4  5  16  17  18  19  20  21  22  23  24  25 0
 3-21G
 ****
 27  28  30  31  32  35  37  42  43  44  45  46  47 0
 3-21G
 ****
 48  49 0
 3-21G
 ****


