%nproc=1
%NoSave
%Mem=1900MB
#P OB98/GEN NMR

erre ene a

0 1
  C       -6.058     169.304     -45.145
  O       -5.049     169.374     -44.132
  P       -5.385     168.716     -42.710
  C       -5.685     170.760     -41.125
  O       -6.309     169.732     -41.884
  C       -6.746     171.667     -40.494
  O       -7.458     172.413     -41.499
  C       -7.814     170.899     -39.736
  O       -7.331     170.489     -38.471
  C       -8.945     171.918     -39.662
  O       -8.849     172.735     -38.484
  C       -8.734     172.765     -40.937
  N       -9.804     172.595     -41.908
  C      -10.707     173.657     -42.015
  O      -10.585     174.651     -41.297
  N      -11.739     173.552     -42.915
  C      -11.868     172.472     -43.623
  N      -12.913     172.427     -44.493
  C      -10.953     171.320     -43.520
  C       -9.953     171.446     -42.649
  O       -3.984     168.780     -41.936
  O       -5.902     167.317     -42.797
  H       -7.909     173.005     -38.425
  H       -3.895     168.018     -41.337
  H      -11.107     170.439     -44.126
  H       -9.232     170.648     -42.507
  H       -8.680     173.831     -40.682
  H       -9.923     171.426     -39.625
  H       -8.137     170.029     -40.321
  H       -6.242     172.374     -39.820
  H      -13.522     173.235     -44.536
  H       -5.023     171.350     -41.762
  H      -13.113     171.634     -45.086
  H       -5.054     170.300     -40.357
  P       -6.984     168.940     -38.271
  C       -8.861     168.192     -36.687
  O       -8.399     168.225     -38.024
  O       -6.348     168.926     -36.799
  O       -6.083     168.303     -39.275
  H       -6.003     168.039     -36.591
  H       -9.908     167.875     -36.687
  H       -8.795     169.182     -36.232
  H       -8.275     167.474     -36.109
  H       -5.703     169.779     -46.036
  H       -6.941     169.802     -44.804
  H       -6.284     168.279     -45.353

 3  4  5  6  7  8  9  10  11  12  13  21  23  27  28  29  30  32 0
 6-311+G(2d,p)
 ****
 34  35 0
 6-311+G(2d,p)
 ****
 1  2  14  15  16  17  18  19  20  22  24  25  26 0
 3-21G
 ****
 31  33  36  37  38  39  40  41  42  43  44  45  46 0
 3-21G
 ****


