%nproc=1
%NoSave
%Mem=1900MB
#P OB98/GEN NMR

erre ene a

0 1
  C     -159.407     274.679      22.364
  O     -159.464     275.965      22.951
  H     -158.359     274.415      22.191
  H     -159.933     274.676      21.406
  H     -159.848     273.936      23.036
  P     -160.924     276.567      23.235
  C     -160.166     277.048      25.675
  O     -161.155     276.484      24.822
  C     -160.844     277.794      26.822
  O     -161.637     276.871      27.605
  C     -159.871     278.431      27.806
  O     -159.329     279.643      27.316
  C     -160.777     278.635      29.013
  O     -161.535     279.849      28.903
  C     -161.699     277.396      28.949
  N     -161.341     276.394      29.945
  C     -162.406     275.823      30.642
  O     -163.581     276.134      30.447
  N     -162.066     274.906      31.603
  C     -160.802     274.542      31.952
  O     -160.567     273.771      32.877
  C     -159.716     275.166      31.171
  C     -160.029     276.056      30.224
  O     -161.900     275.443      22.649
  O     -161.183     277.908      22.632
  H     -162.253     275.723      21.786
  H     -162.118     279.737      28.125
  H     -162.822     274.496      32.124
  H     -158.695     274.893      31.423
  H     -159.246     276.541      29.655
  H     -162.744     277.691      29.123
  H     -160.203     278.701      29.939
  H     -159.078     277.717      28.075
  H     -161.515     278.553      26.395
  H     -159.548     277.751      25.105
  H     -159.521     276.244      26.053
  P     -157.834     280.044      27.753
  C     -156.587     278.657      25.896
  O     -156.881     278.845      27.266
  O     -157.915     279.861      29.338
  O     -157.414     281.398      27.289
  H     -158.486     279.121      29.610
  H     -155.941     277.812      25.783
  H     -156.102     279.530      25.512
  H     -157.495     278.487      25.356

 6  7  8  9  10  11  12  13  14  15  16  27  31  32  33  34  35 0
 6-311+G(2d,p)
 ****
 36  37 0
 6-311+G(2d,p)
 ****
 1  2  3  4  5  17  18  19  20  21  22  23  24  25 0
 3-21G
 ****
 26  28  29  30  38  39  40  41  42  43  44  45 0
 3-21G
 ****


