%nproc=1
%NoSave
%Mem=1900MB
#P OB98/GEN NMR

erre ene a

0 1
  C       93.821    -230.401      23.417
  O       94.960    -230.495      24.247
  H       92.993    -230.925      23.901
  H       94.010    -230.867      22.446
  H       93.536    -229.354      23.279
  P       96.349    -229.900      23.703
  C       96.745    -231.615      21.801
  O       97.116    -231.179      23.100
  C       96.607    -233.136      21.774
  O       96.225    -233.598      20.462
  C       97.886    -233.901      22.098
  O       98.225    -233.877      23.475
  C       97.490    -235.290      21.621
  O       96.607    -235.895      22.582
  C       96.735    -234.953      20.311
  N       97.582    -235.051      19.123
  C       98.018    -236.334      18.769
  O       97.692    -237.313      19.439
  N       98.847    -236.475      17.682
  C       99.224    -235.425      17.019
  N      100.083    -235.615      15.980
  C       98.774    -234.059      17.347
  C       97.970    -233.943      18.401
  O       97.140    -229.077      24.668
  O       95.949    -229.108      22.370
  H       96.203    -236.669      22.151
  H       96.774    -228.711      22.001
  H       99.124    -233.217      16.766
  H       97.610    -232.969      18.714
  H       95.868    -235.611      20.182
  H       98.342    -235.962      21.493
  H       98.720    -233.546      21.483
  H       95.791    -233.405      22.459
  H      100.402    -236.559      15.812
  H       97.511    -231.278      21.096
  H      100.630    -234.849      15.602
  H       95.783    -231.177      21.517
  P       99.773    -233.694      23.863
  C       99.858    -236.295      24.008
  O      100.230    -235.054      24.583
  O       99.718    -232.633      25.056
  O      100.675    -233.263      22.750
  H       99.845    -231.722      24.724
  H      100.240    -237.095      24.608
  H      100.262    -236.366      23.020
  H       98.791    -236.361      23.962

 6  7  8  9  10  11  12  13  14  15  16  26  30  31  32  33  35 0
 6-311+G(2d,p)
 ****
 37  38 0
 6-311+G(2d,p)
 ****
 1  2  3  4  5  17  18  19  20  21  22  23  24  25 0
 3-21G
 ****
 27  28  29  34  36  39  40  41  42  43  44  45  46 0
 3-21G
 ****


