%nproc=1
%NoSave
%Mem=1900MB
#P OB98/GEN NMR

erre ene a

0 1
  C      -13.148    -895.756     622.389
  O      -13.168    -896.526     623.591
  H      -13.468    -896.426     621.567
  H      -12.138    -895.406     622.188
  H      -13.844    -894.926     622.448
  P      -12.841    -895.796     624.976
  C      -10.293    -896.146     624.752
  O      -11.344    -895.186     624.845
  C       -9.203    -895.646     623.813
  O       -8.436    -894.626     624.498
  C       -8.234    -896.746     623.351
  O       -7.869    -896.496     622.000
  C       -7.014    -896.546     624.235
  O       -5.806    -896.996     623.638
  C       -7.043    -895.016     624.445
  N       -2.764    -893.056     626.289
  C       -3.175    -893.246     624.970
  N       -2.292    -892.896     624.011
  N       -4.336    -893.746     624.663
  C       -5.117    -894.046     625.707
  C       -4.843    -893.906     627.067
  C       -3.546    -893.356     627.421
  O       -3.099    -893.156     628.547
  N       -5.877    -894.346     627.834
  C       -6.779    -894.776     626.975
  N       -6.369    -894.616     625.676
  O      -13.078    -896.606     626.208
  O      -13.767    -894.476     624.931
  H       -5.108    -896.926     624.317
  H      -14.566    -894.606     625.481
  H       -1.870    -892.666     626.493
  H       -7.736    -895.196     627.228
  H       -6.550    -894.466     623.634
  H       -7.148    -897.056     625.205
  H       -1.393    -892.486     624.212
  H       -8.650    -897.766     623.480
  H       -2.583    -893.006     623.032
  H       -9.691    -895.166     622.954
  H      -10.711    -897.086     624.374
  H       -9.884    -896.326     625.773
  P       -8.705    -897.266     620.837
  C       -6.843    -898.956     620.330
  O       -8.200    -898.776     620.755
  O       -8.810    -896.516     619.532
  O      -10.180    -897.406     621.510
  H      -10.849    -897.396     620.815
  H       -6.611    -900.000     620.311
  H       -6.187    -898.457     621.012
  H       -6.719    -898.545     619.350

 6  7  8  9  10  11  12  13  14  15  26  29  33  34 0
 6-311+G(2d,p)
 ****
 36  38  39  40  41 0
 6-311+G(2d,p)
 ****
 1  2  3  4  5  16  17  18  19  20  21  22  23  24  25 0
 3-21G
 ****
 27  28  30  31  32  35  37  42  43  44  45  46  47 0
 3-21G
 ****
 48  49 0
 3-21G
 ****


