%nproc=1
%NoSave
%Mem=1900MB
#P OB98/GEN NMR

erre ene a

0 1
  C      119.113    -178.423    -143.741
  O      120.480    -178.006    -143.700
  P      121.389    -178.664    -142.553
  C      122.824    -180.066    -144.197
  O      122.803    -179.052    -143.203
  C      124.223    -180.195    -144.806
  O      124.467    -179.214    -145.832
  C      125.342    -180.023    -143.788
  O      125.519    -181.221    -143.052
  C      126.528    -179.690    -144.685
  O      127.137    -180.887    -145.213
  C      125.878    -178.877    -145.816
  N      128.631    -174.869    -147.246
  C      128.860    -176.216    -147.443
  N      129.968    -176.540    -148.143
  N      128.074    -177.159    -146.997
  C      127.001    -176.689    -146.316
  C      126.654    -175.379    -146.080
  C      127.534    -174.345    -146.577
  O      127.364    -173.138    -146.448
  N      125.462    -175.293    -145.406
  C      125.161    -176.546    -145.127
  N      126.029    -177.435    -145.712
  O      120.681    -180.077    -142.290
  O      121.461    -177.845    -141.307
  H      128.012    -180.663    -145.578
  H      120.251    -180.073    -141.414
  H      129.275    -174.184    -147.605
  H      124.318    -176.867    -144.532
  H      126.286    -179.155    -146.796
  H      127.313    -179.160    -144.140
  H      130.617    -175.867    -148.518
  H      125.123    -179.178    -143.125
  H      130.151    -177.524    -148.307
  H      124.290    -181.190    -145.266
  H      122.100    -179.837    -144.981
  H      122.510    -181.012    -143.743
  P      126.444    -181.169    -141.746
  C      124.777    -181.673    -139.823
  O      125.805    -182.157    -140.666
  O      126.154    -179.710    -141.155
  O      127.901    -181.362    -142.011
  H      126.994    -179.294    -140.886
  H      124.122    -182.504    -139.551
  H      124.185    -180.898    -140.313
  H      125.224    -181.264    -138.912
  H      118.611    -177.921    -144.541
  H      118.638    -178.180    -142.813
  H      119.067    -179.480    -143.899

 3  4  5  6  7  8  9  10  11  12  23  26  30  31 0
 6-311+G(2d,p)
 ****
 33  35  36  37  38 0
 6-311+G(2d,p)
 ****
 1  2  13  14  15  16  17  18  19  20  21  22  24  25 0
 3-21G
 ****
 27  28  29  32  34  39  40  41  42  43  44  45  46  47  48  49 0
 3-21G
 ****


