%nproc=1
%NoSave
%Mem=1900MB
#P OB98/GEN NMR

erre ene a

0 1
  C       79.717     -97.061      76.725
  O       79.364     -96.483      75.484
  H       80.255     -96.334      77.338
  H       78.805     -97.358      77.248
  H       80.337     -97.947      76.567
  P       80.578     -95.963      74.572
  C       79.442     -95.987      72.247
  O       79.920     -95.193      73.323
  C       78.232     -96.803      72.696
  O       77.274     -95.897      73.302
  C       77.524     -97.555      71.556
  O       77.328     -98.930      71.907
  C       76.168     -96.883      71.456
  O       75.125     -97.784      71.100
  C       75.977     -96.305      72.852
  N       71.065     -95.007      73.279
  C       71.734     -96.110      73.680
  N       73.059     -96.352      73.624
  C       73.715     -95.294      73.116
  C       73.172     -94.095      72.687
  C       71.774     -93.978      72.764
  N       71.086     -92.875      72.304
  N       74.160     -93.248      72.221
  C       75.275     -93.942      72.326
  N       75.054     -95.190      72.848
  O       81.153     -97.312      73.925
  O       81.635     -95.216      75.312
  H       75.279     -98.055      70.176
  H       82.080     -97.424      74.207
  H       71.123     -96.907      74.096
  H       76.254     -93.612      72.000
  H       75.599     -97.060      73.556
  H       76.217     -96.091      70.699
  H       78.070     -97.497      70.609
  H       78.552     -97.504      73.477
  H       80.231     -96.671      71.917
  H       70.080     -92.923      72.290
  H       71.601     -92.155      71.819
  H       79.172     -95.332      71.412
  P       78.183    -100.005      71.069
  C       77.956    -101.845      72.888
  O       77.727    -101.475      71.535
  O       79.657     -99.846      71.672
  O       78.167     -99.770      69.596
  H       80.289     -99.641      70.956
  H       77.604    -102.842      73.050
  H       77.433    -101.173      73.535
  H       79.004    -101.799      73.098

 6  7  8  9  10  11  12  13  14  15  25  28  32  33  34  35 0
 6-311+G(2d,p)
 ****
 36  39  40 0
 6-311+G(2d,p)
 ****
 1  2  3  4  5  16  17  18  19  20  21  22  23  24 0
 3-21G
 ****
 26  27  29  30  31  37  38  41  42  43  44  45  46  47  48 0
 3-21G
 ****


