%nproc=1
%NoSave
%Mem=1900MB
#P OB98/GEN NMR

erre ene a

0 1
  C     -214.040      23.884     161.193
  O     -215.133      24.270     160.389
  H     -213.422      23.178     160.632
  H     -214.400      23.388     162.099
  H     -213.432      24.752     161.460
  P     -216.092      25.427     160.952
  C     -217.554      23.504     161.903
  O     -216.957      24.771     162.136
  C     -217.571      22.677     163.191
  O     -218.032      23.520     164.280
  C     -218.484      21.453     163.125
  O     -217.858      20.374     163.825
  C     -219.729      21.890     163.877
  O     -220.455      20.791     164.426
  C     -219.139      22.853     164.915
  N     -220.140      23.802     165.395
  C     -221.121      23.299     166.255
  O     -221.118      22.108     166.568
  N     -222.111      24.141     166.693
  C     -222.170      25.355     166.244
  N     -223.194      26.130     166.695
  C     -221.197      25.906     165.283
  C     -220.215      25.088     164.909
  O     -217.165      25.621     159.782
  O     -215.410      26.703     161.318
  H     -221.262      21.141     164.860
  H     -217.474      26.546     159.736
  H     -221.301      26.918     164.915
  H     -219.458      25.402     164.201
  H     -218.742      22.297     165.776
  H     -220.398      22.430     163.196
  H     -218.712      21.138     162.102
  H     -216.540      22.385     163.428
  H     -223.852      25.708     167.338
  H     -216.973      22.969     161.147
  H     -223.363      27.072     166.377
  H     -218.574      23.646     161.530
  P     -217.255      19.187     162.931
  C     -219.547      18.055     162.482
  O     -218.400      18.685     161.929
  O     -217.103      17.983     163.973
  O     -215.952      19.528     162.288
  H     -216.159      17.829     164.172
  H     -220.216      17.778     161.694
  H     -220.040      18.733     163.147
  H     -219.248      17.180     163.021

 6  7  8  9  10  11  12  13  14  15  16  26  30  31  32  33  35 0
 6-311+G(2d,p)
 ****
 37  38 0
 6-311+G(2d,p)
 ****
 1  2  3  4  5  17  18  19  20  21  22  23  24  25 0
 3-21G
 ****
 27  28  29  34  36  39  40  41  42  43  44  45  46 0
 3-21G
 ****


