%nproc=1
%NoSave
%Mem=1900MB
#P OB98/GEN NMR

erre ene a

0 1
  C      645.259    -544.003     270.902
  O      646.335    -543.622     271.769
  P      646.155    -542.246     272.585
  C      647.874    -540.724     271.350
  O      646.509    -541.043     271.576
  C      648.003    -539.489     270.457
  O      647.396    -539.712     269.170
  C      647.320    -538.247     271.006
  O      648.110    -537.606     272.001
  C      647.216    -537.387     269.751
  O      648.470    -536.698     269.538
  C      646.980    -538.433     268.648
  N      643.314    -536.445     265.753
  C      644.635    -536.061     265.906
  N      645.042    -535.012     265.153
  N      645.479    -536.648     266.716
  C      644.935    -537.706     267.373
  C      643.645    -538.174     267.316
  C      642.717    -537.491     266.439
  O      641.526    -537.768     266.303
  N      643.475    -539.272     268.133
  C      644.664    -539.469     268.667
  N      645.582    -538.532     268.244
  O      647.390    -542.254     273.600
  O      644.851    -542.132     273.293
  H      648.355    -536.133     268.747
  H      647.181    -541.735     274.391
  H      642.706    -535.952     265.126
  H      644.911    -540.277     269.344
  H      647.585    -538.231     267.755
  H      646.441    -536.616     269.832
  H      644.472    -534.561     264.452
  H      646.304    -538.483     271.376
  H      646.024    -534.737     265.222
  H      649.068    -539.294     270.309
  H      648.373    -541.572     270.873
  H      648.367    -540.561     272.312
  P      647.547    -537.625     273.501
  C      646.416    -535.298     273.591
  O      646.242    -536.703     273.507
  O      648.640    -536.773     274.300
  O      647.381    -538.995     274.085
  H      648.697    -537.061     275.224
  H      647.233    -534.955     272.945
  H      646.624    -535.008     274.620
  H      645.491    -534.813     273.275
  H      645.499    -544.928     270.421
  H      645.111    -543.244     270.162
  H      644.363    -544.121     271.476

 3  4  5  6  7  8  9  10  11  12  23  26  30  31  33  0
 6-311+G(2d,p)
 ****
 35  36  37  38 0
 6-311+G(2d,p)
 ****
 1  2  13  14  15  16  17  18  19  20  21  22  24  25  27  28  29 0
 3-21G
 ****
 32  34  39  40  41  42  43  44  45  46  47  48  49 0
 3-21G
 ****


