%nproc=1
%NoSave
%Mem=1900MB
#P OB98/GEN NMR

erre ene a

0 1
  C     -172.913    -670.550    -278.638
  O     -171.749    -669.715    -278.735
  P     -170.710    -669.999    -279.927
  C     -171.359    -670.429    -282.410
  O     -171.399    -669.538    -281.303
  C     -172.290    -669.934    -283.521
  O     -173.647    -669.758    -283.039
  C     -171.890    -668.591    -284.109
  O     -170.884    -668.734    -285.109
  C     -173.194    -668.148    -284.759
  O     -173.353    -668.805    -286.027
  C     -174.241    -668.643    -283.755
  N     -176.574    -664.184    -283.232
  C     -176.353    -664.942    -284.361
  N     -176.842    -664.448    -285.526
  N     -175.728    -666.093    -284.356
  C     -175.316    -666.460    -283.122
  C     -175.470    -665.799    -281.921
  C     -176.162    -664.523    -281.958
  O     -176.383    -663.793    -280.978
  N     -174.920    -666.494    -280.880
  C     -174.440    -667.594    -281.436
  N     -174.649    -667.612    -282.797
  O     -170.734    -671.603    -280.036
  O     -169.328    -669.485    -279.681
  H     -173.518    -669.757    -285.839
  H     -169.880    -671.918    -280.382
  H     -177.076    -663.293    -283.295
  H     -173.952    -668.396    -280.901
  H     -175.158    -669.001    -284.245
  H     -173.217    -667.073    -284.954
  H     -177.375    -663.600    -285.600
  H     -171.594    -667.877    -283.320
  H     -176.708    -665.009    -286.368
  H     -172.300    -670.692    -284.316
  H     -171.652    -671.429    -282.098
  H     -170.327    -670.507    -282.757
  P     -169.342    -668.700    -284.625
  C     -168.736    -669.869    -282.385
  O     -169.130    -670.020    -283.744
  O     -169.334    -667.505    -283.556
  O     -168.361    -668.476    -285.722
  H     -168.457    -667.055    -283.557
  H     -168.792    -670.861    -281.902
  H     -169.388    -669.167    -281.863
  H     -167.689    -669.514    -282.334
  H     -173.505    -670.241    -277.802
  H     -172.612    -671.568    -278.505
  H     -173.490    -670.463    -279.535

 3  4  5  6  7  8  9  10  11  12  23  26  30  31 0
 6-311+G(2d,p)
 ****
 33  35  36  37  38 0
 6-311+G(2d,p)
 ****
 1  2  13  14  15  16  17  18  19  20  21  22  24  25 0
 3-21G
 ****
 27  28  29  32  34  39  40  41  42  43  44  45  46  47  48  49 0
 3-21G
 ****


