%nproc=1
%NoSave
%Mem=1900MB
#P OB98/GEN NMR

erre ene a

0 1
  C      295.232     157.154    -206.946
  O      295.296     158.400    -206.276
  P      295.113     158.476    -204.688
  C      292.594     157.967    -204.766
  O      293.867     157.550    -204.281
  C      291.506     156.997    -204.310
  O      291.590     155.750    -205.039
  C      291.602     156.600    -202.844
  O      291.201     157.650    -201.982
  C      290.710     155.368    -202.814
  O      289.324     155.740    -202.742
  C      291.022     154.727    -204.186
  N      291.907     153.575    -204.070
  C      291.290     152.351    -203.806
  O      290.075     152.295    -203.600
  N      292.068     151.220    -203.768
  C      293.361     151.321    -203.860
  N      294.072     150.164    -203.881
  C      294.059     152.618    -203.980
  C      293.279     153.690    -204.101
  O      295.083     159.852    -204.115
  O      296.365     157.651    -204.116
  H      296.809     158.192    -203.434
  H      288.816     154.915    -202.638
  H      295.138     152.653    -203.986
  H      293.705     154.683    -204.215
  H      290.094     154.409    -204.674
  H      290.916     154.724    -201.958
  H      292.632     156.310    -202.607
  H      290.531     157.456    -204.519
  H      293.555     149.293    -203.814
  H      292.627     157.996    -205.856
  H      295.011     150.108    -204.267
  H      292.383     158.977    -204.401
  P      291.984     157.784    -200.588
  C      290.165     156.581    -199.190
  O      291.504     156.579    -199.648
  O      291.325     159.076    -199.916
  O      293.467     157.936    -200.720
  H      292.006     159.581    -199.428
  H      289.904     155.571    -198.878
  H      289.473     156.902    -199.971
  H      290.080     157.251    -198.328
  H      295.376     157.305    -207.995
  H      294.274     156.708    -206.779
  H      295.997     156.507    -206.570

 3  4  5  6  7  8  9  10  11  12  13  24  27  28  29  30  32 0
 6-311+G(2d,p)
 ****
 34  35 0
 6-311+G(2d,p)
 ****
 1  2  14  15  16  17  18  19  20  21  22  23  25  26 0
 3-21G
 ****
 31  33  36  37  38  39  40  41  42  43  44  45  46 0
 3-21G
 ****


