%nproc=1
%NoSave
%Mem=1900MB
#P OB98/GEN NMR

erre ene a

0 1
  C     -232.643    -899.356     232.826
  O     -233.402    -898.276     232.259
  P     -232.656    -897.306     231.210
  C     -231.063    -895.276     231.596
  O     -232.149    -896.056     232.077
  C     -230.134    -894.866     232.720
  O     -229.404    -895.996     233.210
  C     -229.107    -893.796     232.332
  O     -229.698    -892.536     232.261
  C     -228.089    -893.976     233.464
  O     -228.474    -893.156     234.608
  C     -228.180    -895.466     233.802
  N     -227.013    -896.216     233.356
  C     -225.789    -895.786     233.886
  O     -225.750    -894.796     234.639
  N     -224.635    -896.436     233.497
  C     -224.704    -897.416     232.665
  N     -223.550    -898.026     232.309
  C     -225.974    -897.906     232.072
  C     -227.086    -897.256     232.460
  O     -233.854    -896.716     230.355
  O     -231.611    -897.976     230.375
  H     -227.706    -893.156     235.198
  H     -233.545    -896.456     229.461
  H     -225.982    -898.736     231.383
  H     -228.059    -897.536     232.081
  H     -228.304    -895.626     234.889
  H     -227.100    -893.636     233.158
  H     -228.639    -894.066     231.385
  H     -230.781    -894.496     233.568
  H     -222.692    -897.686     232.717
  H     -231.452    -894.386     231.088
  H     -223.490    -898.826     231.691
  H     -230.511    -895.886     230.846
  P     -228.897    -891.366     231.495
  C     -226.541    -890.416     231.822
  O     -227.602    -891.116     232.420
  O     -229.797    -890.086     231.797
  O     -228.645    -891.566     230.042
  H     -229.448    -889.316     231.306
  H     -225.809    -890.166     232.580
  H     -226.897    -889.476     231.359
  H     -226.062    -891.036     231.074
  H     -233.262    -899.912     233.499
  H     -231.803    -898.961     233.358
  H     -232.299    -900.000     232.043

 3  4  5  6  7  8  9  10  11  12  13  21  23  27  28  29  30  32 0
 6-311+G(2d,p)
 ****
 34  35 0
 6-311+G(2d,p)
 ****
 1  2  14  15  16  17  18  19  20  22  24  25  26 0
 3-21G
 ****
 31  33  36  37  38  39  40  41  42  43  44  45  46 0
 3-21G
 ****


