%nproc=1
%NoSave
%Mem=1900MB
#P OB98/GEN NMR

erre ene a

0 1
  C     -154.474    -170.372     -57.514
  O     -153.604    -169.534     -58.246
  H     -154.399    -171.386     -57.914
  H     -155.509    -170.033     -57.608
  H     -154.184    -170.393     -56.459
  P     -153.611    -167.963     -57.928
  C     -152.059    -168.011     -55.858
  O     -153.377    -167.813     -56.349
  C     -151.518    -166.729     -55.214
  O     -152.365    -166.373     -54.085
  C     -150.080    -166.860     -54.681
  O     -149.470    -165.567     -54.773
  C     -150.330    -167.231     -53.233
  O     -149.170    -167.088     -52.455
  C     -151.520    -166.318     -52.916
  N     -152.227    -166.717     -51.709
  C     -151.598    -166.419     -50.497
  O     -150.501    -165.862     -50.487
  N     -152.213    -166.788     -49.327
  C     -153.322    -167.458     -49.368
  N     -153.874    -167.805     -48.170
  C     -153.989    -167.843     -50.629
  C     -153.395    -167.440     -51.749
  O     -154.773    -167.196     -58.466
  O     -152.230    -167.437     -58.548
  H     -148.473    -167.719     -52.741
  H     -152.406    -166.954     -59.378
  H     -154.905    -168.417     -50.607
  H     -153.808    -167.679     -52.725
  H     -151.189    -165.275     -52.798
  H     -150.635    -168.281     -53.152
  H     -149.488    -167.599     -55.229
  H     -151.597    -165.909     -55.939
  H     -153.376    -167.528     -47.332
  H     -151.432    -168.298     -56.707
  H     -154.722    -168.343     -48.078
  H     -152.048    -168.823     -55.123
  P     -149.475    -164.697     -56.121
  C     -151.934    -163.936     -55.927
  O     -150.964    -164.633     -56.706
  O     -148.445    -165.114     -57.119
  O     -149.202    -163.189     -55.641
  H     -148.721    -162.710     -56.343
  H     -152.880    -163.967     -56.425
  H     -151.628    -162.918     -55.804
  H     -152.021    -164.400     -54.967

 6  7  8  9  10  11  12  13  14  15  16  26  30  31  32  33  35 0
 6-311+G(2d,p)
 ****
 37  38 0
 6-311+G(2d,p)
 ****
 1  2  3  4  5  17  18  19  20  21  22  23  24  25 0
 3-21G
 ****
 27  28  29  34  36  39  40  41  42  43  44  45  46 0
 3-21G
 ****


