%nproc=1
%NoSave
%Mem=1900MB
#P OB98/GEN NMR

erre ene a

0 1
  C     1965.340    2087.783    -899.310
  O     1966.222    2087.513    -898.250
  H     1965.127    2086.889    -899.870
  H     1964.396    2088.161    -898.870
  H     1965.776    2088.554    -899.950
  P     1967.682    2086.959    -898.630
  C     1967.970    2086.425    -896.110
  O     1968.124    2085.946    -897.440
  C     1968.114    2085.250    -895.150
  O     1969.333    2084.529    -895.430
  C     1968.163    2085.616    -893.670
  O     1966.896    2085.861    -893.120
  C     1968.807    2084.377    -893.090
  O     1967.847    2083.347    -892.960
  C     1969.871    2084.032    -894.150
  N     1974.380    2083.375    -891.830
  C     1973.270    2082.615    -891.860
  N     1972.089    2082.833    -892.490
  C     1972.157    2084.028    -893.170
  C     1973.223    2084.927    -893.210
  C     1974.361    2084.537    -892.530
  N     1975.514    2085.321    -892.470
  N     1972.900    2086.044    -893.950
  C     1971.656    2085.797    -894.360
  N     1971.168    2084.601    -893.900
  O     1968.639    2088.213    -898.420
  O     1967.809    2086.375    -900.000
  H     1968.222    2082.660    -892.370
  H     1969.477    2088.111    -898.930
  H     1973.287    2081.658    -891.310
  H     1971.083    2086.493    -895.020
  H     1970.007    2082.938    -894.270
  H     1969.229    2084.572    -892.060
  H     1968.822    2086.510    -893.530
  H     1967.279    2084.529    -895.340
  H     1966.933    2086.846    -895.990
  H     1976.230    2085.029    -891.810
  H     1975.465    2086.246    -892.840
  H     1968.708    2087.176    -895.890
  P     1966.795    2086.827    -891.830
  C     1964.175    2086.876    -892.170
  O     1965.274    2086.644    -891.300
  O     1966.759    2088.302    -892.500
  O     1967.895    2086.645    -890.820
  H     1967.108    2088.968    -891.880
  H     1963.260    2086.705    -891.642
  H     1964.235    2086.210    -893.005
  H     1964.203    2087.888    -892.518

 6  7  8  9  10  11  12  13  14  15  25  28  32  33  34  35 0
 6-311+G(2d,p)
 ****
 36  39  40 0
 6-311+G(2d,p)
 ****
 1  2  3  4  5  16  17  18  19  20  21  22  23  24 0
 3-21G
 ****
 26  27  29  30  31  37  38  41  42  43  44  45  46  47 0
 3-21G
 ****
 48 0
 3-21G
 ****


