%nproc=1
%NoSave
%Mem=1900MB
#P OB98/GEN NMR

erre ene a

0 1
  C     -156.433     322.864    -939.845
  O     -155.997     322.132    -938.714
  H     -155.586     323.445    -940.234
  H     -157.223     323.558    -939.551
  H     -156.789     322.193    -940.622
  P     -157.038     321.077    -938.091
  C     -158.629     323.066    -937.456
  O     -158.459     321.819    -938.106
  C     -159.965     323.715    -937.870
  O     -160.967     322.667    -938.011
  C     -160.497     324.732    -936.847
  O     -161.143     325.795    -937.568
  C     -161.526     323.942    -936.068
  O     -162.488     324.791    -935.455
  C     -162.079     323.005    -937.167
  N     -162.714     321.815    -936.601
  C     -163.862     322.027    -935.820
  O     -164.272     323.176    -935.625
  N     -164.479     320.946    -935.249
  C     -163.972     319.759    -935.397
  N     -164.620     318.730    -934.786
  C     -162.737     319.503    -936.165
  C     -162.181     320.553    -936.757
  O     -156.619     321.076    -936.547
  O     -157.011     319.732    -938.748
  H     -162.061     325.251    -934.690
  H     -156.463     321.965    -936.189
  H     -162.343     318.484    -936.244
  H     -161.280     320.451    -937.352
  H     -162.820     323.540    -937.786
  H     -161.036     323.354    -935.285
  H     -159.696     325.146    -936.213
  H     -159.831     324.168    -938.855
  H     -165.452     318.957    -934.240
  H     -157.801     323.740    -937.706
  H     -164.282     317.776    -934.779
  H     -158.609     322.892    -936.377
  P     -160.500     327.258    -937.578
  C     -162.045     328.516    -935.918
  O     -160.760     327.945    -936.148
  O     -160.819     328.106    -938.753
  O     -158.917     326.947    -937.524
  H     -158.472     327.575    -938.118
  H     -162.078     328.935    -934.934
  H     -162.794     327.757    -936.008
  H     -162.228     329.285    -936.639

 6  7  8  9  10  11  12  13  14  15  16  26  30  31  32  33  35 0
 6-311+G(2d,p)
 ****
 37  38 0
 6-311+G(2d,p)
 ****
 1  2  3  4  5  17  18  19  20  21  22  23  24  25 0
 3-21G
 ****
 27  28  29  34  36  39  40  41  42  43  44  45  46 0
 3-21G
 ****


