%nproc=1
%NoSave
%Mem=1900MB
#P OB98/GEN NMR

erre ene a

0 1
  C      197.667    -274.680    -160.438
  O      197.940    -274.244    -159.118
  H      197.344    -275.725    -160.418
  H      196.855    -274.070    -160.845
  H      198.547    -274.569    -161.075
  P      199.282    -274.788    -158.435
  C      200.912    -273.039    -159.447
  O      200.488    -274.396    -159.421
  C      202.278    -272.913    -160.119
  O      202.192    -273.502    -161.448
  C      202.782    -271.470    -160.280
  O      204.194    -271.447    -160.039
  C      202.519    -271.167    -161.743
  O      203.385    -270.160    -162.257
  C      202.736    -272.535    -162.369
  N      202.885    -270.795    -167.147
  C      203.789    -270.769    -166.148
  N      203.694    -271.309    -164.916
  C      202.539    -271.984    -164.786
  C      201.517    -272.110    -165.718
  C      201.722    -271.461    -166.949
  N      200.773    -271.427    -167.945
  N      200.468    -272.839    -165.189
  C      200.839    -273.127    -163.949
  N      202.085    -272.626    -163.661
  O      199.148    -276.377    -158.619
  O      199.480    -274.411    -156.999
  H      203.094    -269.294    -161.914
  H      198.651    -276.752    -157.870
  H      204.714    -270.230    -166.361
  H      200.241    -273.653    -163.221
  H      203.804    -272.773    -162.528
  H      201.486    -270.836    -161.871
  H      202.285    -270.751    -159.613
  H      203.004    -273.513    -159.548
  H      200.990    -272.667    -158.415
  H      200.960    -270.843    -168.752
  H      199.861    -271.817    -167.769
  H      200.169    -272.437    -159.983
  P      204.694    -271.491    -158.513
  C      205.679    -273.899    -158.678
  O      204.746    -273.028    -158.049
  O      203.449    -270.900    -157.707
  O      205.937    -270.706    -158.267
  H      203.758    -270.416    -156.923
  H      205.589    -274.880    -158.260
  H      206.672    -273.533    -158.519
  H      205.478    -273.939    -159.728

 6  7  8  9  10  11  12  13  14  15  25  28  32  33  34  35 0
 6-311+G(2d,p)
 ****
 36  39  40 0
 6-311+G(2d,p)
 ****
 1  2  3  4  5  16  17  18  19  20  21  22  23  24 0
 3-21G
 ****
 26  27  29  30  31  37  38  41  42  43  44  45  46  47 0
 3-21G
 ****
 48 0
 3-21G
 ****


