%nproc=1
%NoSave
%Mem=1900MB
#P OB98/GEN NMR

erre ene a

0 1
  C      188.189      52.813    -184.216
  O      189.467      52.213    -184.276
  H      187.854      52.827    -183.175
  H      187.470      52.240    -184.809
  H      188.240      53.842    -184.585
  P      190.101      51.998    -185.734
  C      189.737      50.310    -187.679
  O      189.469      50.647    -186.322
  C      189.139      48.942    -187.994
  O      189.874      47.913    -187.285
  C      187.691      48.780    -187.551
  O      186.773      49.385    -188.447
  C      187.565      47.266    -187.529
  O      187.260      46.739    -188.827
  C      188.962      46.817    -187.058
  N      188.952      46.392    -185.661
  C      188.621      45.057    -185.440
  O      188.355      44.268    -186.346
  N      188.570      44.663    -184.130
  C      188.759      45.469    -183.044
  O      188.643      45.063    -181.894
  C      189.090      46.873    -183.338
  C      189.165      47.267    -184.614
  O      191.619      51.604    -185.418
  O      190.007      53.180    -186.642
  H      192.206      52.352    -185.632
  H      187.714      47.321    -189.468
  H      188.334      43.700    -183.949
  H      189.247      47.540    -182.499
  H      189.395      48.299    -184.855
  H      189.321      45.980    -187.668
  H      186.767      46.950    -186.858
  H      187.559      49.164    -186.530
  H      189.237      48.756    -189.071
  H      190.819      50.272    -187.842
  H      189.311      51.083    -188.329
  P      185.472      50.088    -187.822
  C      183.710      49.315    -186.027
  O      184.774      48.976    -186.902
  O      184.541      50.187    -189.120
  O      185.771      51.388    -187.155
  H      184.747      49.489    -189.767
  H      183.384      48.439    -185.505
  H      182.896      49.716    -186.594
  H      184.047      50.046    -185.322

 6  7  8  9  10  11  12  13  14  15  16  27  31  32  33  34  35 0
 6-311+G(2d,p)
 ****
 36  37 0
 6-311+G(2d,p)
 ****
 1  2  3  4  5  17  18  19  20  21  22  23  24  25 0
 3-21G
 ****
 26  28  29  30  38  39  40  41  42  43  44  45 0
 3-21G
 ****


