%nproc=1
%NoSave
%Mem=1900MB
#P OB98/GEN NMR

erre ene a

0 1
  C       97.854     179.677      13.586
  O       96.759     179.129      12.839
  P       95.397     179.929      12.552
  C       96.146     181.009      10.322
  O       95.755     181.225      11.673
  C       95.281     181.837       9.368
  O       95.441     183.249       9.642
  C       95.629     181.703       7.893
  O       95.216     180.463       7.350
  C       94.911     182.917       7.306
  O       93.531     182.630       7.041
  C       95.025     183.948       8.445
  N       95.932     185.040       8.135
  C       95.531     185.922       7.128
  O       94.497     185.714       6.494
  N       96.322     187.010       6.855
  C       97.463     187.145       7.456
  N       98.196     188.251       7.159
  C       97.985     186.163       8.426
  C       97.175     185.147       8.717
  O       94.606     180.238      13.781
  O       94.565     179.001      11.548
  H       93.612     179.184      11.649
  H       93.504     182.117       6.209
  H       98.960     186.292       8.873
  H       97.475     184.387       9.431
  H       94.036     184.359       8.682
  H       95.360     183.244       6.363
  H       96.713     181.825       7.765
  H       94.231     181.566       9.539
  H       97.805     188.910       6.498
  H       96.013     179.947      10.088
  H       99.086     188.463       7.588
  H       97.206     181.260      10.209
  P       96.270     179.689       6.422
  C       97.169     177.742       7.884
  O       97.382     179.045       7.379
  O       97.049     180.869       5.669
  O       95.655     178.738       5.447
  H       97.223     180.610       4.746
  H       98.140     177.278       8.076
  H       96.612     177.120       7.179
  H       96.618     177.807       8.825
  H       98.644     178.957      13.641
  H       97.525     179.922      14.574
  H       98.211     180.561      13.100

 3  4  5  6  7  8  9  10  11  12  13  24  27  28  29  30  32 0
 6-311+G(2d,p)
 ****
 34  35 0
 6-311+G(2d,p)
 ****
 1  2  14  15  16  17  18  19  20  21  22  23  25  26 0
 3-21G
 ****
 31  33  36  37  38  39  40  41  42  43  44  45  46 0
 3-21G
 ****


