%nproc=1
%NoSave
%Mem=1900MB
#P OB98/GEN NMR

erre ene a

0 1
  C      -42.005     630.617     326.649
  O      -41.032     631.569     327.020
  P      -40.313     632.513     325.944
  C      -41.385     634.587     327.026
  O      -41.232     633.834     325.837
  C      -41.571     636.077     326.722
  O      -42.821     636.277     325.998
  C      -41.609     636.987     327.961
  O      -41.001     638.227     327.562
  C      -43.092     637.169     328.193
  O      -43.391     638.303     329.004
  C      -43.607     637.238     326.752
  N      -45.034     636.963     326.657
  C      -45.864     638.042     326.313
  O      -45.374     639.163     326.168
  N      -47.214     637.832     326.180
  C      -47.711     636.670     326.486
  N      -49.054     636.513     326.333
  C      -46.886     635.542     326.981
  C      -45.583     635.753     327.021
  O      -40.007     631.859     324.634
  O      -39.022     633.057     326.717
  H      -44.359     638.290     329.205
  H      -38.317     632.351     326.739
  H      -47.357     634.615     327.272
  H      -44.900     634.983     327.371
  H      -43.415     638.226     326.315
  H      -43.501     636.282     328.699
  H      -41.087     636.558     328.826
  H      -40.760     636.390     326.049
  H      -49.574     637.307     325.980
  H      -40.476     634.466     327.623
  H      -49.527     635.636     326.461
  H      -42.222     634.203     327.609
  P      -40.459     639.276     328.651
  C      -38.530     637.772     329.382
  O      -39.712     638.431     329.787
  O      -41.490     640.244     329.162
  O      -39.261     640.033     327.909
  H      -39.045     640.850     328.400
  H      -37.959     637.468     330.275
  H      -37.905     638.422     328.770
  H      -38.789     636.867     328.809
  H      -42.350     630.101     327.521
  H      -41.575     629.915     325.966
  H      -42.828     631.113     326.179

 3  4  5  6  7  8  9  10  11  12  13  23  27  28  29  30  32 0
 6-311+G(2d,p)
 ****
 34  35 0
 6-311+G(2d,p)
 ****
 1  2  14  15  16  17  18  19  20  21  22  24  25  26 0
 3-21G
 ****
 31  33  36  37  38  39  40  41  42  43  44  45  46 0
 3-21G
 ****


