%nproc=1
%NoSave
%Mem=1900MB
#P OB98/GEN NMR

erre ene a

0 1
  C       45.191    -406.191     -10.290
  O       44.476    -404.962     -10.106
  P       43.555    -404.832      -8.803
  C       45.392    -403.840      -7.220
  O       44.551    -404.937      -7.552
  C       45.525    -403.722      -5.702
  O       46.310    -404.816      -5.172
  C       46.232    -402.462      -5.229
  O       45.379    -401.326      -5.344
  C       46.597    -402.848      -3.802
  O       45.463    -402.688      -2.934
  C       46.934    -404.347      -3.959
  N       48.367    -404.613      -3.952
  C       48.931    -404.874      -2.695
  O       48.284    -404.853      -1.656
  N       50.278    -405.118      -2.690
  C       51.103    -405.113      -3.784
  O       52.303    -405.363      -3.718
  C       50.458    -404.789      -5.064
  C       49.144    -404.560      -5.091
  O       42.792    -406.236      -8.823
  O       42.671    -403.630      -8.831
  H       43.347    -406.962      -9.148
  H       45.711    -403.095      -2.076
  H       50.701    -405.316      -1.797
  H       51.084    -404.753      -5.947
  H       48.654    -404.309      -6.026
  H       46.482    -404.922      -3.139
  H       47.401    -402.236      -3.399
  H       47.144    -402.302      -5.820
  H       44.520    -403.784      -5.271
  H       44.963    -402.911      -7.611
  H       46.365    -403.977      -7.701
  P       45.816    -400.204      -6.409
  C       43.841    -400.758      -8.054
  O       45.238    -400.676      -7.830
  O       47.386    -400.474      -6.532
  O       45.450    -398.810      -6.006
  H       47.608    -401.410      -6.592
  H       43.662    -400.751      -9.122
  H       43.323    -399.915      -7.591
  H       43.463    -401.694      -7.626
  H       45.762    -406.140     -11.194
  H       44.496    -407.002     -10.352
  H       45.849    -406.348      -9.461

 3  4  5  6  7  8  9  10  11  12  13  24  28  29  30  31  32 0
 6-311+G(2d,p)
 ****
 33  34 0
 6-311+G(2d,p)
 ****
 1  2  14  15  16  17  18  19  20  21  22  23  25  26  27 0
 3-21G
 ****
 35  36  37  38  39  40  41  42  43  44  45 0
 3-21G
 ****


