%nproc=1
%NoSave
%Mem=1900MB
#P OB98/GEN NMR

erre ene a

0 1
  C     -386.065     537.510     -94.928
  O     -386.752     538.704     -94.612
  H     -386.323     537.218     -95.951
  H     -386.363     536.704     -94.247
  H     -384.984     537.669     -94.870
  P     -386.540     539.288     -93.132
  C     -388.118     540.457     -91.460
  O     -388.026     539.626     -92.619
  C     -389.586     540.686     -91.091
  O     -390.127     541.717     -91.967
  C     -390.466     539.444     -91.249
  O     -391.421     539.405     -90.189
  C     -391.177     539.667     -92.574
  O     -392.414     538.970     -92.657
  C     -391.305     541.187     -92.602
  N     -394.206     543.961     -95.761
  C     -394.279     543.735     -94.426
  N     -393.443     542.991     -93.660
  C     -392.438     542.495     -94.400
  C     -392.229     542.635     -95.760
  C     -393.182     543.404     -96.464
  N     -393.131     543.623     -97.814
  N     -391.104     541.942     -96.156
  C     -390.628     541.395     -95.050
  N     -391.411     541.690     -93.963
  O     -385.549     540.399     -93.016
  O     -386.181     537.962     -92.309
  H     -392.796     539.134     -93.545
  H     -386.769     537.221     -92.552
  H     -395.112     544.207     -93.914
  H     -389.736     540.772     -94.987
  H     -392.186     541.548     -92.047
  H     -390.535     539.323     -93.404
  H     -389.882     538.517     -91.253
  H     -389.634     541.085     -90.069
  H     -387.626     541.419     -91.643
  H     -393.842     544.199     -98.239
  H     -392.361     543.231     -98.357
  H     -387.601     539.942     -90.638
  P     -391.097     538.515     -88.891
  C     -390.856     538.895     -86.342
  O     -391.337     539.413     -87.580
  O     -389.816     537.757     -88.930
  O     -392.346     537.513     -88.843
  H     -392.039     536.637     -88.544
  H     -391.079     539.586     -85.556
  H     -389.797     538.753     -86.402
  H     -391.331     537.958     -86.139

 6  7  8  9  10  11  12  13  14  15  25  28  32  33  34  35 0
 6-311+G(2d,p)
 ****
 36  39  40 0
 6-311+G(2d,p)
 ****
 1  2  3  4  5  16  17  18  19  20  21  22  23  24 0
 3-21G
 ****
 26  27  29  30  31  37  38  41  42  43  44  45  46  47 0
 3-21G
 ****
 48 0
 3-21G
 ****


