%nproc=1
%NoSave
%Mem=1900MB
#P OB98/GEN NMR

erre ene a

0 1
  C       12.620     737.947    -696.933
  O       11.502     738.057    -697.798
  P       10.539     736.800    -698.044
  C        8.294     738.047    -698.006
  O        9.229     737.348    -698.813
  C        7.246     738.761    -698.854
  O        7.828     739.946    -699.465
  C        6.673     737.902    -700.020
  O        5.293     738.281    -700.173
  C        7.478     738.366    -701.215
  O        6.839     738.085    -702.460
  C        7.599     739.863    -700.894
  N        8.955     742.295    -705.210
  C        7.774     741.741    -704.807
  N        7.505     741.092    -703.643
  C        8.596     741.038    -702.851
  C        9.859     741.539    -703.136
  C       10.026     742.204    -704.350
  N       11.205     742.814    -704.768
  N       10.737     741.235    -702.089
  C        9.999     740.571    -701.226
  N        8.700     740.483    -701.601
  O       10.243     735.971    -696.841
  O       11.292     735.951    -699.165
  H        5.908     738.345    -702.392
  H       11.685     735.143    -698.763
  H        6.966     741.836    -705.516
  H       10.368     740.138    -700.293
  H        6.677     740.418    -701.126
  H        8.449     737.877    -701.229
  H        6.748     736.826    -699.849
  H        6.432     739.109    -698.199
  H        8.845     738.811    -697.428
  H       11.178     743.379    -705.600
  H       11.922     742.983    -704.058
  H        7.815     737.364    -697.296
  P        4.187     737.178    -700.535
  C        2.481     738.061    -698.859
  O        2.758     737.856    -700.222
  O        4.417     735.821    -699.961
  O        4.225     737.156    -702.160
  H        3.788     736.333    -702.471
  H        2.144     737.120    -698.393
  H        1.678     738.819    -698.771
  H        3.350     738.417    -698.318
  H       13.137     738.883    -696.897
  H       13.280     737.189    -697.298
  H       12.286     737.686    -695.950

 3  4  5  6  7  8  9  10  11  12  22  25  29  30  31  32 0
 6-311+G(2d,p)
 ****
 33  36  37 0
 6-311+G(2d,p)
 ****
 1  2  13  14  15  16  17  18  19  20  21  23  24  26 0
 3-21G
 ****
 27  28  34  35  38  39  40  41  42  43  44  45  46  47  48 0
 3-21G
 ****


