%nproc=1
%NoSave
%Mem=1900MB
#P OB98/GEN NMR

erre ene a

0 1
  C      435.116     270.411     -65.641
  O      436.212     269.982     -66.456
  P      437.574     269.401     -65.811
  C      438.595     271.717     -65.374
  O      438.219     270.475     -64.800
  C      439.053     272.753     -64.342
  O      437.911     273.354     -63.668
  C      439.967     272.207     -63.237
  O      440.838     273.287     -62.871
  C      438.989     271.912     -62.116
  O      439.601     271.786     -60.840
  C      438.043     273.094     -62.256
  N      435.528     272.326     -57.849
  C      436.787     272.736     -58.108
  N      437.373     272.952     -59.303
  C      436.508     272.747     -60.307
  C      435.188     272.341     -60.203
  C      434.694     272.113     -58.900
  N      433.422     271.650     -58.640
  N      434.610     272.205     -61.455
  C      435.578     272.514     -62.295
  N      436.741     272.853     -61.656
  O      438.532     268.857     -66.818
  O      437.074     268.230     -64.840
  H      440.258     272.510     -60.751
  H      437.640     267.443     -64.971
  H      437.412     272.900     -57.232
  H      435.499     272.491     -63.378
  H      438.467     273.993     -61.789
  H      438.476     270.953     -62.334
  H      440.545     271.324     -63.550
  H      439.557     273.567     -64.882
  H      437.737     272.125     -65.937
  H      433.196     271.429     -57.682
  H      432.835     271.367     -59.408
  H      439.403     271.539     -66.097
  P      442.428     273.201     -63.050
  C      443.324     272.967     -60.661
  O      442.975     272.277     -61.861
  O      443.118     274.518     -63.204
  O      442.635     272.276     -64.348
  H      443.525     272.411     -64.709
  H      444.286     273.484     -60.792
  H      443.409     272.236     -59.840
  H      442.555     273.691     -60.398
  H      434.320     270.758     -66.267
  H      435.438     271.205     -65.000
  H      434.771     269.591     -65.047

 3  4  5  6  7  8  9  10  11  12  22  25  29  30  31  32 0
 6-311+G(2d,p)
 ****
 33  36  37 0
 6-311+G(2d,p)
 ****
 1  2  13  14  15  16  17  18  19  20  21  23  24  26 0
 3-21G
 ****
 27  28  34  35  38  39  40  41  42  43  44  45  46  47  48 0
 3-21G
 ****


