%nproc=1
%NoSave
%Mem=1900MB
#P OB98/GEN NMR

erre ene a

0 1
  C     -242.946    -669.674     -15.112
  O     -242.954    -670.125     -16.461
  P     -241.730    -671.045     -16.953
  C     -240.301    -669.122     -17.973
  O     -240.420    -670.111     -16.966
  C     -238.853    -668.629     -18.059
  O     -238.719    -667.775     -19.232
  C     -238.374    -667.818     -16.854
  O     -236.969    -668.078     -16.691
  C     -238.570    -666.371     -17.303
  O     -237.766    -665.447     -16.570
  C     -238.209    -666.493     -18.789
  N     -237.516    -661.837     -20.647
  C     -236.720    -662.581     -19.782
  N     -235.543    -662.015     -19.427
  N     -237.045    -663.755     -19.327
  C     -238.245    -664.200     -19.792
  C     -239.139    -663.545     -20.610
  C     -238.751    -662.255     -21.140
  O     -239.385    -661.603     -21.971
  N     -240.281    -664.273     -20.791
  C     -240.046    -665.408     -20.145
  N     -238.805    -665.427     -19.565
  O     -242.059    -671.269     -18.499
  O     -241.550    -672.339     -16.214
  H     -237.989    -665.555     -15.622
  H     -242.551    -672.095     -18.646
  H     -237.204    -660.940     -20.978
  H     -240.732    -666.234     -20.075
  H     -237.130    -666.472     -18.962
  H     -239.622    -666.089     -17.176
  H     -235.224    -661.128     -19.759
  H     -238.903    -668.044     -15.925
  H     -234.939    -662.556     -18.821
  H     -238.197    -669.497     -18.214
  H     -240.939    -668.268     -17.712
  H     -240.627    -669.517     -18.934
  P     -236.406    -668.275     -15.194
  C     -234.867    -666.204     -15.442
  O     -235.881    -666.848     -14.693
  O     -235.052    -669.098     -15.447
  O     -237.314    -669.013     -14.275
  H     -234.884    -669.691     -14.682
  H     -234.900    -665.129     -15.226
  H     -234.997    -666.349     -16.519
  H     -233.880    -666.586     -15.142
  H     -243.815    -669.077     -14.930
  H     -242.068    -669.088     -14.937
  H     -242.949    -670.518     -14.454

 3  4  5  6  7  8  9  10  11  12  23  26  30  31 0
 6-311+G(2d,p)
 ****
 33  35  36  37  38 0
 6-311+G(2d,p)
 ****
 1  2  13  14  15  16  17  18  19  20  21  22  24  25 0
 3-21G
 ****
 27  28  29  32  34  39  40  41  42  43  44  45  46  47  48  49 0
 3-21G
 ****


