%nproc=1
%NoSave
%Mem=1900MB
#P OB98/GEN NMR

erre ene a

0 1
  C      156.470    -383.842     143.811
  O      157.835    -383.524     143.993
  H      156.310    -384.885     144.092
  H      156.197    -383.714     142.761
  H      155.840    -383.205     144.440
  P      158.257    -381.984     143.867
  C      158.195    -381.379     146.401
  O      157.595    -381.223     145.120
  C      158.403    -380.012     147.048
  O      157.112    -379.347     147.155
  C      159.008    -380.074     148.462
  O      159.886    -378.954     148.632
  C      157.792    -379.902     149.362
  O      158.107    -379.416     150.659
  C      156.960    -378.927     148.529
  N      155.551    -378.914     148.922
  C      155.183    -378.070     149.967
  O      155.935    -377.280     150.527
  N      153.877    -378.167     150.372
  C      152.933    -379.017     149.868
  O      151.782    -379.070     150.289
  C      153.387    -379.888     148.768
  C      154.651    -379.804     148.354
  O      157.386    -381.473     142.624
  O      159.716    -381.727     143.689
  H      157.877    -381.598     141.792
  H      158.513    -378.532     150.550
  H      153.598    -377.567     151.126
  H      152.667    -380.581     148.346
  H      155.024    -380.443     147.568
  H      157.365    -377.912     148.610
  H      157.278    -380.856     149.475
  H      159.550    -381.005     148.677
  H      159.025    -379.395     146.386
  H      159.167    -381.872     146.283
  H      157.553    -382.009     147.027
  P      161.461    -379.232     148.546
  C      161.451    -378.996     145.936
  O      161.720    -379.808     147.072
  O      161.604    -380.506     149.502
  O      162.284    -378.052     148.937
  H      160.840    -381.103     149.449
  H      161.681    -379.542     145.045
  H      162.053    -378.112     145.979
  H      160.416    -378.723     145.930

 6  7  8  9  10  11  12  13  14  15  16  27  31  32  33  34  35 0
 6-311+G(2d,p)
 ****
 36  37 0
 6-311+G(2d,p)
 ****
 1  2  3  4  5  17  18  19  20  21  22  23  24  25 0
 3-21G
 ****
 26  28  29  30  38  39  40  41  42  43  44  45 0
 3-21G
 ****


