%nproc=1
%NoSave
%Mem=1900MB
#P OB98/GEN NMR

erre ene a

0 1
  C       57.953     -64.848      74.166
  O       58.710     -66.032      74.380
  P       58.200     -67.393      73.701
  C       57.582     -68.119      71.289
  O       57.802     -67.038      72.185
  C       56.576     -67.739      70.202
  O       55.259     -67.606      70.802
  C       56.883     -66.420      69.485
  O       56.434     -66.559      68.131
  C       55.991     -65.424      70.203
  O       55.749     -64.257      69.424
  C       54.763     -66.294      70.461
  N       50.581     -63.583      71.600
  C       51.120     -63.949      70.416
  N       52.236     -64.672      70.194
  C       52.814     -65.023      71.356
  C       52.400     -64.694      72.636
  C       51.220     -63.937      72.740
  N       50.663     -63.572      73.942
  N       53.267     -65.213      73.574
  C       54.188     -65.843      72.876
  N       53.942     -65.777      71.533
  O       56.787     -67.630      74.412
  O       59.100     -68.567      73.873
  H       56.608     -63.919      69.105
  H       56.835     -68.413      74.996
  H       50.579     -63.623      69.532
  H       55.045     -66.357      73.289
  H       54.133     -66.393      69.568
  H       56.464     -65.114      71.142
  H       57.939     -66.134      69.508
  H       56.520     -68.564      69.482
  H       57.183     -68.966      71.854
  H       49.748     -63.152      73.938
  H       51.024     -63.990      74.795
  H       58.532     -68.419      70.837
  P       57.118     -65.606      67.038
  C       59.468     -65.515      65.947
  O       58.679     -65.954      67.036
  O       57.050     -64.157      67.716
  O       56.442     -65.622      65.706
  H       57.022     -63.468      67.027
  H       60.473     -65.284      66.309
  H       59.049     -64.625      65.471
  H       59.534     -66.318      65.206
  H       58.416     -64.031      74.679
  H       56.960     -64.987      74.540
  H       57.913     -64.635      73.118

 3  4  5  6  7  8  9  10  11  12  22  25  29  30  31  32 0
 6-311+G(2d,p)
 ****
 33  36  37 0
 6-311+G(2d,p)
 ****
 1  2  13  14  15  16  17  18  19  20  21  23  24  26 0
 3-21G
 ****
 27  28  34  35  38  39  40  41  42  43  44  45  46  47  48 0
 3-21G
 ****


