%nproc=1
%NoSave
%Mem=1900MB
#P OB98/GEN NMR

erre ene a

0 1
  C      280.487      62.385     -17.762
  O      279.533      62.776     -16.760
  P      279.289      64.303     -16.321
  C      280.331      64.567     -13.963
  O      280.505      64.742     -15.366
  C      281.482      65.217     -13.183
  O      282.678      64.412     -13.285
  C      281.910      66.591     -13.690
  O      280.978      67.604     -13.362
  C      283.274      66.738     -13.010
  O      283.143      67.242     -11.674
  C      283.793      65.293     -12.981
  N      284.898      65.058     -13.902
  C      286.176      65.005     -13.338
  O      286.335      65.221     -12.139
  N      287.242      64.707     -14.150
  C      287.058      64.597     -15.436
  N      288.148      64.296     -16.200
  C      285.750      64.783     -16.087
  C      284.722      65.013     -15.270
  O      277.938      64.550     -15.730
  O      279.513      65.168     -17.654
  H      278.998      65.995     -17.590
  H      282.430      66.721     -11.246
  H      285.652      64.728     -17.167
  H      283.722      65.153     -15.662
  H      284.099      65.015     -11.968
  H      283.929      67.438     -13.548
  H      282.048      66.544     -14.778
  H      281.185      65.276     -12.126
  H      289.032      64.158     -15.717
  H      280.321      63.490     -13.746
  H      288.116      64.162     -17.202
  H      279.367      64.985     -13.657
  P      280.311      68.405     -14.579
  C      282.055      70.331     -14.478
  O      281.453      69.310     -15.245
  O      279.360      69.474     -13.846
  O      279.544      67.557     -15.532
  H      278.527      69.569     -14.355
  H      283.069      70.509     -14.849
  H      282.114      70.062     -13.417
  H      281.476      71.250     -14.583
  H      280.467      61.321     -17.878
  H      281.467      62.692     -17.461
  H      280.238      62.850     -18.693

 3  4  5  6  7  8  9  10  11  12  13  24  27  28  29  30  32 0
 6-311+G(2d,p)
 ****
 34  35 0
 6-311+G(2d,p)
 ****
 1  2  14  15  16  17  18  19  20  21  22  23  25  26 0
 3-21G
 ****
 31  33  36  37  38  39  40  41  42  43  44  45  46 0
 3-21G
 ****


