%nproc=1
%NoSave
%Mem=1900MB
#P OB98/GEN NMR

erre ene a

0 1
  C     -673.327    -767.976    1486.881
  O     -673.920    -768.053    1485.602
  H     -673.469    -766.972    1487.277
  H     -672.262    -768.194    1486.834
  H     -673.821    -768.683    1487.562
  P     -673.797    -769.419    1484.766
  C     -673.521    -768.533    1482.343
  O     -674.394    -769.116    1483.300
  C     -674.288    -768.197    1481.077
  O     -674.514    -769.425    1480.347
  C     -675.662    -767.560    1481.331
  O     -675.858    -766.308    1480.673
  C     -676.636    -768.681    1481.068
  O     -677.937    -768.265    1480.697
  C     -675.904    -769.512    1480.017
  N     -676.331    -770.926    1479.981
  C     -677.661    -771.193    1479.667
  O     -678.507    -770.340    1479.384
  N     -678.046    -772.530    1479.645
  C     -677.204    -773.557    1479.926
  O     -677.591    -774.740    1479.905
  C     -675.826    -773.237    1480.286
  C     -675.453    -771.947    1480.305
  O     -674.358    -770.619    1485.450
  O     -672.234    -769.582    1484.500
  H     -678.355    -767.848    1481.489
  H     -671.861    -770.254    1485.089
  H     -678.982    -772.696    1479.392
  H     -675.161    -774.059    1480.530
  H     -674.447    -771.665    1480.552
  H     -676.068    -769.104    1479.015
  H     -676.764    -769.281    1481.986
  H     -675.737    -767.261    1482.420
  H     -673.683    -767.546    1480.443
  H     -672.727    -769.248    1482.140
  H     -673.073    -767.618    1482.776
  P     -675.364    -764.888    1481.193
  C     -677.240    -763.831    1482.738
  O     -676.638    -763.957    1481.454
  O     -674.233    -764.282    1480.451
  O     -674.856    -765.186    1482.709
  H     -674.122    -764.562    1482.868
  H     -678.072    -763.161    1482.678
  H     -676.522    -763.447    1483.432
  H     -677.578    -764.791    1483.069

 6  7  8  9  10  11  12  13  14  15  16  26  31  32  33  34  35 0
 6-311+G(2d,p)
 ****
 36  37 0
 6-311+G(2d,p)
 ****
 1  2  3  4  5  17  18  19  20  21  22  23  24  25 0
 3-21G
 ****
 27  28  29  30  38  39  40  41  42  43  44  45 0
 3-21G
 ****


