%nproc=1
%NoSave
%Mem=1900MB
#P OB98/GEN NMR

erre ene a

0 1
  C      535.551    -440.618    -273.108
  O      535.325    -439.244    -272.866
  H      536.575    -440.750    -273.472
  H      534.857    -440.969    -273.876
  H      535.423    -441.203    -272.194
  P      534.055    -438.857    -271.966
  C      534.948    -436.628    -270.980
  O      534.034    -437.252    -271.870
  C      534.990    -435.119    -271.233
  O      535.637    -434.883    -272.520
  C      533.608    -434.451    -271.272
  O      533.711    -433.146    -270.682
  C      533.362    -434.276    -272.763
  O      532.428    -433.238    -273.037
  C      534.775    -433.993    -273.249
  N      532.883    -432.453    -277.642
  C      532.712    -431.954    -276.364
  N      531.863    -430.915    -276.223
  N      533.328    -432.431    -275.313
  C      534.169    -433.451    -275.599
  C      534.416    -434.044    -276.813
  C      533.722    -433.521    -277.969
  O      533.808    -433.936    -279.119
  N      535.288    -435.098    -276.680
  C      535.542    -435.156    -275.381
  N      534.883    -434.177    -274.686
  O      534.510    -439.316    -270.502
  O      532.765    -439.486    -272.372
  H      531.586    -433.463    -272.594
  H      534.176    -440.217    -270.319
  H      532.374    -432.058    -278.413
  H      536.170    -435.891    -274.899
  H      535.094    -432.958    -273.039
  H      532.978    -435.213    -273.184
  H      531.379    -430.469    -276.985
  H      532.825    -435.024    -270.771
  H      531.762    -430.505    -275.298
  H      535.627    -434.656    -270.466
  H      535.945    -437.047    -271.146
  H      534.650    -436.831    -269.951
  P      533.182    -432.954    -269.182
  C      535.464    -431.807    -268.685
  O      534.060    -431.821    -268.468
  O      533.664    -434.300    -268.454
  O      531.703    -432.781    -269.077
  H      533.006    -434.565    -267.780
  H      535.901    -430.995    -268.142
  H      535.662    -431.685    -269.729
  H      535.886    -432.730    -268.347

 6  7  8  9  10  11  12  13  14  15  26  29  33  34 0
 6-311+G(2d,p)
 ****
 36  38  39  40  41 0
 6-311+G(2d,p)
 ****
 1  2  3  4  5  16  17  18  19  20  21  22  23  24  25 0
 3-21G
 ****
 27  28  30  31  32  35  37  42  43  44  45  46  47 0
 3-21G
 ****
 48  49 0
 3-21G
 ****


