%nproc=1
%NoSave
%Mem=1900MB
#P OB98/GEN NMR

erre ene a

0 1
  C     -436.247     955.265    -456.887
  O     -435.495     954.680    -455.845
  H     -435.667     955.171    -457.815
  H     -436.411     956.326    -456.691
  H     -437.199     954.750    -457.017
  P     -436.163     954.592    -454.377
  C     -435.477     952.300    -453.428
  O     -436.477     953.039    -454.110
  C     -434.349     951.920    -454.393
  O     -433.806     953.130    -454.988
  C     -433.190     951.185    -453.704
  O     -432.689     950.182    -454.594
  C     -432.128     952.270    -453.529
  O     -430.808     951.738    -453.483
  C     -432.382     953.162    -454.751
  N     -430.505     957.243    -457.053
  C     -430.942     956.037    -457.575
  N     -430.834     955.887    -458.920
  N     -431.429     955.057    -456.851
  C     -431.493     955.350    -455.530
  C     -431.095     956.496    -454.890
  C     -430.535     957.563    -455.701
  O     -430.126     958.642    -455.289
  N     -431.279     956.395    -453.531
  C     -431.798     955.195    -453.353
  N     -431.934     954.525    -454.535
  O     -437.319     955.508    -454.149
  O     -434.956     954.900    -453.388
  H     -430.864     950.881    -453.002
  H     -434.976     955.823    -453.072
  H     -430.122     957.947    -457.644
  H     -432.064     954.771    -452.395
  H     -431.876     952.791    -455.655
  H     -432.319     952.816    -452.599
  H     -430.485     956.600    -459.534
  H     -433.464     950.724    -452.768
  H     -431.166     955.023    -459.327
  H     -434.770     951.319    -455.198
  H     -435.936     951.396    -453.014
  H     -435.076     952.898    -452.609
  P     -432.943     948.631    -454.230
  C     -433.642     947.492    -456.438
  O     -434.081     948.059    -455.204
  O     -433.138     948.339    -452.780
  O     -431.613     947.917    -454.799
  H     -431.429     947.146    -454.246
  H     -434.489     947.149    -456.994
  H     -432.988     946.669    -456.240
  H     -433.119     948.234    -457.005

 6  7  8  9  10  11  12  13  14  15  26  29  33  34 0
 6-311+G(2d,p)
 ****
 36  38  39  40  41 0
 6-311+G(2d,p)
 ****
 1  2  3  4  5  16  17  18  19  20  21  22  23  24  25 0
 3-21G
 ****
 27  28  30  31  32  35  37  42  43  44  45  46  47 0
 3-21G
 ****
 48  49 0
 3-21G
 ****


