%nproc=1
%NoSave
%Mem=1900MB
#P OB98/GEN NMR

erre ene a

0 1
  C        8.443    -387.165    -586.322
  O        8.896    -388.297    -585.598
  H        7.364    -387.250    -586.469
  H        8.923    -387.114    -587.303
  H        8.652    -386.250    -585.761
  P       10.475    -388.482    -585.390
  C       10.541    -390.967    -586.119
  O       10.685    -390.038    -585.048
  C       11.121    -392.321    -585.718
  O       12.494    -392.174    -585.292
  C       10.395    -392.966    -584.542
  O        9.160    -393.505    -584.947
  C       11.432    -393.957    -584.070
  O       11.420    -395.138    -584.878
  C       12.747    -393.159    -584.267
  N       13.201    -392.531    -583.036
  C       13.467    -393.407    -581.968
  O       13.302    -394.616    -582.094
  N       13.878    -392.854    -580.767
  C       14.048    -391.578    -580.661
  N       14.454    -391.110    -579.451
  C       13.792    -390.624    -581.769
  C       13.382    -391.169    -582.912
  O       11.147    -387.544    -584.433
  O       11.067    -388.352    -586.875
  H       10.484    -395.456    -584.880
  H       11.281    -387.423    -587.077
  H       13.951    -389.564    -581.629
  H       13.179    -390.543    -583.771
  H       13.539    -393.816    -584.639
  H       11.256    -394.267    -583.040
  H       10.246    -392.222    -583.737
  H       11.101    -392.975    -586.596
  H       14.597    -391.783    -578.716
  H       11.089    -390.560    -586.974
  H       14.690    -390.146    -579.270
  H        9.493    -391.076    -586.400
  P        7.809    -392.637    -584.872
  C        7.021    -394.176    -582.951
  O        6.704    -393.608    -584.222
  O        7.404    -391.965    -586.143
  O        8.112    -391.606    -583.674
  H        8.748    -390.896    -583.968
  H        6.213    -394.798    -582.627
  H        7.176    -393.393    -582.239
  H        7.912    -394.763    -583.035

 6  7  8  9  10  11  12  13  14  15  16  26  30  31  32  33  35 0
 6-311+G(2d,p)
 ****
 37  38 0
 6-311+G(2d,p)
 ****
 1  2  3  4  5  17  18  19  20  21  22  23  24  25 0
 3-21G
 ****
 27  28  29  34  36  39  40  41  42  43  44  45  46 0
 3-21G
 ****


