%nproc=1
%NoSave
%Mem=1900MB
#P OB98/GEN NMR

erre ene a

0 1
  C     -448.031    -576.252    -192.742
  O     -446.781    -575.560    -192.678
  P     -445.846    -575.498    -193.972
  C     -446.545    -573.481    -195.436
  O     -445.666    -573.972    -194.429
  C     -446.731    -571.967    -195.285
  O     -447.264    -571.631    -193.979
  C     -445.420    -571.197    -195.385
  O     -444.808    -571.148    -196.652
  C     -445.782    -569.865    -194.735
  O     -446.433    -568.988    -195.653
  C     -446.769    -570.318    -193.627
  N     -446.158    -570.318    -192.300
  C     -445.689    -569.090    -191.839
  O     -445.722    -568.060    -192.513
  N     -445.132    -569.097    -190.590
  C     -444.974    -570.183    -189.781
  O     -444.450    -570.130    -188.678
  C     -445.473    -571.458    -190.323
  C     -446.033    -571.468    -191.536
  O     -446.186    -576.451    -195.068
  O     -444.389    -575.843    -193.374
  H     -445.789    -568.779    -196.356
  H     -443.942    -576.435    -194.007
  H     -444.790    -568.209    -190.239
  H     -445.360    -572.343    -189.714
  H     -446.412    -572.396    -191.954
  H     -447.640    -569.653    -193.595
  H     -444.893    -569.348    -194.361
  H     -444.693    -571.684    -194.719
  H     -447.454    -571.627    -196.026
  H     -447.508    -573.992    -195.370
  H     -446.126    -573.731    -196.420
  P     -443.232    -570.906    -196.858
  C     -442.509    -573.214    -197.792
  O     -442.733    -571.846    -198.054
  O     -442.386    -570.844    -195.632
  O     -443.225    -569.455    -197.558
  H     -442.417    -568.980    -197.269
  H     -442.155    -573.690    -198.714
  H     -443.435    -573.700    -197.480
  H     -441.742    -573.337    -197.019
  H     -448.521    -576.192    -191.793
  H     -447.858    -577.278    -192.990
  H     -448.649    -575.803    -193.491

 3  4  5  6  7  8  9  10  11  12  13  23  28  29  30  31  32 0
 6-311+G(2d,p)
 ****
 33  34 0
 6-311+G(2d,p)
 ****
 1  2  14  15  16  17  18  19  20  21  22  24  25  26  27 0
 3-21G
 ****
 35  36  37  38  39  40  41  42  43  44  45 0
 3-21G
 ****


