%nproc=1
%NoSave
%Mem=1900MB
#P OB98/GEN NMR

erre ene a

0 1
  C     -120.921     -82.997      45.303
  O     -120.316     -81.867      45.892
  H     -121.024     -83.776      46.062
  H     -120.291     -83.379      44.496
  H     -121.912     -82.747      44.915
  P     -120.207     -80.538      44.999
  C     -117.645     -80.410      45.397
  O     -118.899     -79.753      45.502
  C     -116.678     -79.884      46.458
  O     -117.049     -80.440      47.746
  C     -115.216     -80.249      46.192
  O     -114.392     -79.143      46.572
  C     -114.960     -81.415      47.129
  O     -113.581     -81.554      47.473
  C     -115.884     -81.077      48.305
  N     -116.233     -82.269      49.073
  C     -115.296     -82.707      50.012
  O     -114.233     -82.101      50.156
  N     -115.555     -83.850      50.724
  C     -116.618     -84.544      50.460
  N     -116.805     -85.684      51.178
  C     -117.601     -84.157      49.429
  C     -117.352     -83.016      48.786
  O     -121.407     -79.629      45.538
  O     -120.272     -80.751      43.524
  H     -113.079     -81.754      46.653
  H     -121.772     -79.067      44.829
  H     -118.458     -84.782      49.226
  H     -118.013     -82.655      48.008
  H     -115.403     -80.354      48.978
  H     -115.282     -82.348      46.650
  H     -115.018     -80.508      45.148
  H     -116.802     -78.797      46.532
  H     -116.099     -85.925      51.864
  H     -117.223     -80.217      44.405
  H     -117.570     -86.323      51.026
  H     -117.789     -81.489      45.514
  P     -113.459     -78.514      45.431
  C     -111.066     -78.680      46.429
  O     -112.182     -77.850      46.138
  O     -114.303     -77.258      44.913
  O     -113.146     -79.464      44.322
  H     -114.657     -77.439      44.022
  H     -110.300     -78.097      46.896
  H     -110.689     -79.102      45.521
  H     -111.368     -79.466      47.089

 6  7  8  9  10  11  12  13  14  15  16  26  30  31  32  33  35 0
 6-311+G(2d,p)
 ****
 37  38 0
 6-311+G(2d,p)
 ****
 1  2  3  4  5  17  18  19  20  21  22  23  24  25 0
 3-21G
 ****
 27  28  29  34  36  39  40  41  42  43  44  45  46 0
 3-21G
 ****


