%nproc=1
%NoSave
%Mem=1900MB
#P OB98/GEN NMR

erre ene a

0 1
  C     -122.587     247.724      40.071
  O     -121.977     248.549      41.045
  H     -121.890     247.594      39.238
  H     -123.499     248.199      39.695
  H     -122.820     246.743      40.493
  P     -122.762     248.716      42.440
  C     -121.728     247.012      44.155
  O     -121.703     248.310      43.578
  C     -120.338     246.627      44.667
  O     -119.473     246.391      43.527
  C     -119.679     247.697      45.541
  O     -118.941     247.049      46.580
  C     -118.724     248.397      44.585
  O     -117.653     249.038      45.275
  C     -118.316     247.240      43.657
  N     -117.850     247.713      42.352
  C     -116.464     247.791      42.170
  O     -115.697     247.494      43.084
  N     -115.982     248.249      40.967
  C     -116.809     248.658      40.048
  N     -116.262     249.118      38.888
  C     -118.276     248.641      40.220
  C     -118.724     248.152      41.377
  O     -123.772     247.475      42.393
  O     -123.417     250.048      42.619
  H     -117.040     248.339      45.605
  H     -123.371     246.659      42.054
  H     -118.924     249.004      39.434
  H     -119.786     248.098      41.585
  H     -117.514     246.645      44.115
  H     -119.260     249.168      44.014
  H     -120.391     248.398      45.974
  H     -120.421     245.673      45.203
  H     -115.248     249.130      38.820
  H     -122.064     246.275      43.418
  H     -116.806     249.509      38.131
  H     -122.449     247.023      44.980
  P     -119.446     247.179      48.097
  C     -120.775     245.001      48.482
  O     -119.569     245.709      48.736
  O     -120.626     248.069      48.314
  O     -118.150     247.769      48.853
  H     -118.458     248.419      49.517
  H     -120.733     244.044      48.958
  H     -120.896     244.870      47.427
  H     -121.603     245.556      48.870

 6  7  8  9  10  11  12  13  14  15  16  26  30  31  32  33  35 0
 6-311+G(2d,p)
 ****
 37  38 0
 6-311+G(2d,p)
 ****
 1  2  3  4  5  17  18  19  20  21  22  23  24  25 0
 3-21G
 ****
 27  28  29  34  36  39  40  41  42  43  44  45  46 0
 3-21G
 ****


