%nproc=1
%NoSave
%Mem=1900MB
#P OB98/GEN NMR

erre ene a

0 1
  C     -775.806     339.131    -247.142
  O     -775.617     339.014    -248.540
  H     -774.881     339.499    -246.694
  H     -776.050     338.159    -246.707
  H     -776.606     339.847    -246.933
  P     -776.859     338.452    -249.388
  C     -776.636     335.981    -248.642
  O     -777.377     337.189    -248.543
  C     -777.574     334.775    -248.664
  O     -778.413     334.776    -247.494
  C     -778.514     334.732    -249.859
  O     -777.859     334.164    -250.985
  C     -779.609     333.815    -249.335
  O     -779.191     332.443    -249.460
  C     -779.693     334.205    -247.850
  N     -784.752     335.034    -247.642
  C     -784.034     334.034    -248.196
  N     -782.695     333.908    -248.263
  C     -782.083     334.946    -247.664
  C     -782.688     336.039    -247.060
  C     -784.093     336.059    -247.055
  N     -784.824     337.077    -246.490
  N     -781.744     336.908    -246.562
  C     -780.590     336.319    -246.805
  N     -780.738     335.152    -247.505
  O     -776.598     338.216    -250.836
  O     -777.970     339.560    -249.069
  H     -779.888     331.894    -249.052
  H     -777.932     339.822    -248.133
  H     -784.612     333.238    -248.652
  H     -779.627     336.693    -246.483
  H     -779.850     333.323    -247.211
  H     -780.543     333.913    -249.890
  H     -778.941     335.717    -250.081
  H     -776.955     333.869    -248.620
  H     -775.940     335.895    -247.798
  H     -785.813     337.109    -246.702
  H     -784.330     337.896    -246.170
  H     -776.052     336.024    -249.568
  P     -778.228     334.630    -252.479
  C     -780.445     333.329    -252.524
  O     -779.832     334.617    -252.532
  O     -777.532     333.862    -253.553
  O     -777.884     336.187    -252.501
  H     -777.823     336.501    -253.430
  H     -781.509     333.440    -252.562
  H     -780.172     332.810    -251.629
  H     -780.114     332.771    -253.375

 6  7  8  9  10  11  12  13  14  15  25  28  32  33  34  35 0
 6-311+G(2d,p)
 ****
 36  39  40 0
 6-311+G(2d,p)
 ****
 1  2  3  4  5  16  17  18  19  20  21  22  23  24 0
 3-21G
 ****
 26  27  29  30  31  37  38  41  42  43  44  45  46  47 0
 3-21G
 ****
 48 0
 3-21G
 ****


