%nproc=1
%NoSave
%Mem=1900MB
#P OB98/GEN NMR

erre ene a

0 1
  C     1107.640     729.913    -514.086
  O     1107.085     731.180    -514.402
  P     1108.036     732.479    -514.214
  C     1106.508     733.723    -515.914
  O     1107.149     733.738    -514.641
  C     1106.575     735.114    -516.562
  O     1105.759     736.035    -515.804
  C     1107.991     735.730    -516.636
  O     1108.052     736.507    -517.833
  C     1108.049     736.627    -515.419
  O     1109.046     737.626    -515.526
  C     1106.610     737.124    -515.381
  N     1106.314     741.114    -512.278
  C     1106.840     741.045    -513.542
  N     1107.307     742.175    -514.068
  N     1106.918     739.924    -514.229
  C     1106.383     738.852    -513.566
  C     1105.865     738.827    -512.295
  C     1105.757     740.047    -511.574
  O     1105.225     740.203    -510.472
  N     1105.510     737.515    -511.942
  C     1105.751     736.819    -513.033
  N     1106.243     737.582    -514.049
  O     1109.088     732.318    -515.406
  O     1108.666     732.613    -512.856
  H     1109.164     738.032    -514.652
  H     1109.896     731.852    -515.084
  H     1106.262     742.001    -511.793
  H     1105.582     735.751    -513.129
  H     1106.450     737.980    -516.071
  H     1108.267     736.022    -514.537
  H     1107.275     743.070    -513.624
  H     1108.777     734.963    -516.653
  H     1107.709     742.142    -515.017
  H     1106.144     735.044    -517.567
  H     1105.442     733.471    -515.783
  H     1106.968     732.960    -516.569
  P     1109.164     736.172    -518.917
  C     1108.174     737.022    -521.144
  O     1109.085     737.248    -520.078
  O     1108.614     734.838    -519.607
  O     1110.534     735.930    -518.344
  H     1109.361     734.270    -519.880
  H     1107.927     737.977    -521.623
  H     1107.263     736.557    -520.805
  H     1108.657     736.363    -521.884
  H     1106.908     729.151    -514.255
  H     1107.938     729.900    -513.058
  H     1108.493     729.732    -514.707

 3  4  5  6  7  8  9  10  11  12  23  26  30  31 0
 6-311+G(2d,p)
 ****
 33  35  36  37  38 0
 6-311+G(2d,p)
 ****
 1  2  13  14  15  16  17  18  19  20  21  22  24  25 0
 3-21G
 ****
 27  28  29  32  34  39  40  41  42  43  44  45  46  47  48  49 0
 3-21G
 ****


