%nproc=1
%NoSave
%Mem=1900MB
#P OB98/GEN NMR

erre ene a

0 1
  C       70.031     667.855    -644.548
  O       69.857     666.469    -644.298
  H       69.359     668.413    -643.887
  H       69.765     668.082    -645.583
  H       71.060     668.157    -644.342
  P       70.861     665.430    -644.986
  C       70.524     663.935    -642.906
  O       70.571     663.996    -644.331
  C       69.712     662.713    -642.461
  O       68.345     662.843    -642.894
  C       70.211     661.396    -643.051
  O       71.390     660.957    -642.392
  C       68.985     660.514    -642.834
  O       68.923     660.048    -641.474
  C       67.836     661.508    -643.120
  N       67.295     661.380    -644.473
  C       66.126     660.631    -644.609
  O       65.577     660.058    -643.654
  N       65.611     660.549    -645.876
  C       66.179     661.045    -647.009
  O       65.705     660.890    -648.132
  C       67.428     661.807    -646.819
  C       67.923     661.935    -645.575
  O       72.307     665.827    -645.006
  O       70.278     665.267    -646.473
  H       68.147     659.460    -641.417
  H       70.797     665.811    -647.088
  H       64.775     659.992    -645.991
  H       67.917     662.216    -647.694
  H       68.847     662.486    -645.415
  H       67.017     661.363    -642.403
  H       68.985     659.636    -643.473
  H       70.379     661.494    -644.129
  H       69.726     662.683    -641.364
  H       70.055     664.843    -642.525
  H       71.549     663.884    -642.524
  P       72.551     660.223    -643.211
  C       74.243     662.143    -642.987
  O       73.959     660.795    -642.657
  O       72.414     660.261    -644.694
  O       72.527     658.727    -642.661
  H       72.133     658.129    -643.342
  H       75.191     662.419    -642.575
  H       73.481     662.777    -642.584
  H       74.272     662.251    -644.051

 6  7  8  9  10  11  12  13  14  15  16  26  31  32  33  34  35 0
 6-311+G(2d,p)
 ****
 36  37 0
 6-311+G(2d,p)
 ****
 1  2  3  4  5  17  18  19  20  21  22  23  24  25 0
 3-21G
 ****
 27  28  29  30  38  39  40  41  42  43  44  45 0
 3-21G
 ****


