%nproc=1
%NoSave
%Mem=1900MB
#P OB98/GEN NMR

erre ene a

0 1
  C     -138.438     144.237     496.037
  O     -139.491     143.714     496.824
  P     -140.077     142.277     496.420
  C     -142.509     143.147     496.027
  O     -141.350     142.530     495.473
  C     -143.001     144.257     495.090
  O     -141.876     145.028     494.597
  C     -143.713     143.738     493.847
  O     -145.045     143.363     494.142
  C     -143.605     144.929     492.910
  O     -144.644     145.889     493.180
  C     -142.224     145.506     493.282
  N     -141.201     145.180     492.294
  C     -141.189     145.969     491.146
  O     -141.998     146.880     490.948
  N     -140.238     145.653     490.212
  C     -139.353     144.611     490.284
  O     -138.560     144.351     489.390
  C     -139.429     143.799     491.513
  C     -140.337     144.111     492.436
  O     -140.726     141.730     497.782
  O     -139.074     141.325     495.864
  H     -144.478     146.236     494.082
  H     -140.604     140.762     497.842
  H     -140.192     146.224     489.383
  H     -138.745     142.963     491.597
  H     -140.425     143.508     493.336
  H     -142.283     146.596     493.365
  H     -143.705     144.637     491.857
  H     -143.156     142.893     493.418
  H     -143.651     144.931     495.660
  H     -142.267     143.569     497.007
  H     -143.288     142.390     496.161
  P     -145.427     141.822     493.958
  C     -146.891     142.448     491.883
  O     -145.837     141.666     492.415
  O     -146.809     141.741     494.766
  O     -144.360     140.888     494.454
  H     -147.304     142.576     494.714
  H     -146.908     143.447     492.325
  H     -147.837     141.948     492.058
  H     -146.737     142.553     490.799
  H     -138.149     145.194     496.419
  H     -138.767     144.341     495.024
  H     -137.601     143.571     496.073

 3  4  5  6  7  8  9  10  11  12  13  23  28  29  30  31  32 0
 6-311+G(2d,p)
 ****
 33  34 0
 6-311+G(2d,p)
 ****
 1  2  14  15  16  17  18  19  20  21  22  24  25  26 0
 3-21G
 ****
 27  35  36  37  38  39  40  41  42  43  44  45 0
 3-21G
 ****


