%nproc=1
%NoSave
%Mem=1900MB
#P OB98/GEN NMR

erre ene a

0 1
  C     -135.976      -2.013     -15.606
  O     -136.645      -3.145     -15.054
  P     -135.835      -4.522     -14.925
  C     -136.302      -5.222     -12.485
  O     -136.586      -5.459     -13.860
  C     -137.356      -5.896     -11.591
  O     -138.644      -5.267     -11.828
  C     -137.569      -7.391     -11.858
  O     -136.759      -8.325     -11.150
  C     -138.998      -7.583     -11.353
  O     -138.988      -7.770      -9.924
  C     -139.681      -6.261     -11.691
  N     -143.961      -8.107     -13.801
  C     -143.451      -8.209     -12.555
  N     -142.304      -7.689     -12.074
  C     -141.665      -6.987     -13.022
  C     -142.063      -6.792     -14.334
  C     -143.272      -7.393     -14.722
  N     -143.786      -7.298     -15.995
  N     -141.143      -6.021     -15.014
  C     -140.197      -5.772     -14.131
  N     -140.471      -6.322     -12.909
  O     -134.360      -4.398     -14.743
  O     -136.174      -5.252     -16.314
  H     -138.543      -6.989      -9.547
  H     -135.381      -5.731     -16.622
  H     -144.042      -8.790     -11.850
  H     -139.301      -5.202     -14.331
  H     -140.352      -5.923     -10.894
  H     -139.476      -8.468     -11.781
  H     -137.524      -7.605     -12.932
  H     -137.088      -5.739     -10.539
  H     -136.292      -4.146     -12.295
  H     -144.636      -7.796     -16.202
  H     -143.257      -6.819     -16.709
  H     -135.293      -5.586     -12.291
  P     -135.607      -9.158     -11.888
  C     -133.736      -8.514     -10.177
  O     -134.542      -9.521     -10.747
  O     -135.027      -8.504     -13.093
  O     -136.321     -10.560     -12.173
  H     -136.512     -11.083     -11.377
  H     -133.245      -8.919      -9.288
  H     -134.340      -7.652      -9.884
  H     -132.969      -8.204     -10.893
  H     -136.645      -1.178     -15.625
  H     -135.658      -2.238     -16.603
  H     -135.124      -1.774     -15.005

 3  4  5  6  7  8  9  10  11  12  22  25  29  30  31  32 0
 6-311+G(2d,p)
 ****
 33  36  37 0
 6-311+G(2d,p)
 ****
 1  2  13  14  15  16  17  18  19  20  21  23  24  26 0
 3-21G
 ****
 27  28  34  35  38  39  40  41  42  43  44  45  46  47  48 0
 3-21G
 ****


