%nproc=1
%NoSave
%Mem=1900MB
#P OB98/GEN NMR

erre ene a

0 1
  C     -679.957     -39.900    -170.573
  O     -679.524     -41.047    -169.859
  P     -678.516     -40.823    -168.632
  C     -678.774     -43.253    -167.749
  O     -677.889     -42.258    -168.282
  C     -678.290     -44.654    -168.100
  O     -678.510     -44.892    -169.518
  C     -676.807     -44.904    -167.811
  O     -676.653     -46.204    -167.202
  C     -676.176     -44.981    -169.198
  O     -674.986     -45.746    -169.210
  C     -677.337     -45.581    -169.994
  N     -676.845     -48.189    -174.298
  C     -677.207     -48.633    -173.035
  N     -677.405     -49.960    -172.893
  N     -677.346     -47.834    -172.015
  C     -677.148     -46.530    -172.304
  C     -676.802     -45.974    -173.519
  C     -676.588     -46.873    -174.632
  O     -676.177     -46.554    -175.747
  N     -676.720     -44.600    -173.431
  C     -676.999     -44.323    -172.171
  N     -677.224     -45.463    -171.437
  O     -679.508     -40.536    -167.400
  O     -677.532     -39.712    -168.797
  H     -674.418     -45.414    -168.493
  H     -679.276     -39.670    -166.981
  H     -676.734     -48.847    -175.056
  H     -677.030     -43.338    -171.730
  H     -677.452     -46.644    -169.757
  H     -675.942     -43.966    -169.534
  H     -677.334     -50.631    -173.650
  H     -676.330     -44.143    -167.179
  H     -677.686     -50.304    -171.982
  H     -678.916     -45.380    -167.561
  H     -679.773     -43.092    -168.161
  H     -678.819     -43.122    -166.659
  P     -675.617     -46.287    -165.974
  C     -676.980     -48.331    -165.106
  O     -675.713     -47.788    -165.425
  O     -676.336     -45.405    -164.827
  O     -674.240     -45.785    -166.297
  H     -675.667     -45.069    -164.199
  H     -677.809     -47.669    -165.427
  H     -677.049     -48.459    -164.022
  H     -677.084     -49.301    -165.587
  H     -680.620     -40.198    -171.358
  H     -679.109     -39.400    -170.993
  H     -680.468     -39.237    -169.907

 3  4  5  6  7  8  9  10  11  12  23  26  30  31  33  0
 6-311+G(2d,p)
 ****
 35  36  37  38 0
 6-311+G(2d,p)
 ****
 1  2  13  14  15  16  17  18  19  20  21  22  24  25  27  28  29 0
 3-21G
 ****
 32  34  39  40  41  42  43  44  45  46  47  48  49 0
 3-21G
 ****


