%nproc=1
%NoSave
%Mem=1900MB
#P OB98/GEN NMR

erre ene a

0 1
  C      -28.760    -133.544    -128.591
  O      -28.750    -134.956    -128.541
  P      -30.062    -135.793    -128.153
  C      -29.497    -136.253    -125.686
  O      -30.308    -135.517    -126.591
  C      -30.335    -136.884    -124.573
  O      -30.885    -135.838    -123.724
  C      -31.509    -137.744    -125.067
  O      -31.653    -138.807    -124.118
  C      -32.679    -136.784    -124.972
  O      -33.936    -137.449    -124.955
  C      -32.318    -136.013    -123.695
  N      -33.028    -134.740    -123.606
  C      -34.271    -134.757    -122.968
  O      -34.756    -135.823    -122.581
  N      -34.961    -133.578    -122.832
  C      -34.496    -132.499    -123.379
  N      -35.220    -131.360    -123.206
  C      -33.252    -132.463    -124.169
  C      -32.568    -133.604    -124.230
  O      -30.034    -137.233    -128.539
  O      -31.250    -134.970    -128.840
  H      -34.108    -137.809    -125.852
  H      -31.279    -135.153    -129.812
  H      -32.934    -131.554    -124.655
  H      -31.641    -133.677    -124.785
  H      -32.559    -136.606    -122.804
  H      -32.670    -136.108    -125.838
  H      -31.368    -138.142    -126.073
  H      -29.665    -137.488    -123.948
  H      -36.061    -131.426    -122.645
  H      -28.779    -135.562    -125.234
  H      -34.907    -130.452    -123.521
  H      -28.929    -137.017    -126.227
  P      -31.862    -140.324    -124.590
  C      -34.397    -140.500    -124.273
  O      -33.337    -140.421    -125.209
  O      -31.541    -141.357    -123.562
  O      -30.917    -140.471    -125.877
  H      -30.787    -141.417    -126.078
  H      -35.341    -140.280    -124.784
  H      -34.259    -139.783    -123.461
  H      -34.446    -141.511    -123.860
  H      -27.789    -133.190    -128.868
  H      -29.020    -133.155    -127.629
  H      -29.478    -133.218    -129.314

 3  4  5  6  7  8  9  10  11  12  13  23  27  28  29  30  32 0
 6-311+G(2d,p)
 ****
 34  35 0
 6-311+G(2d,p)
 ****
 1  2  14  15  16  17  18  19  20  21  22  24  25  26 0
 3-21G
 ****
 31  33  36  37  38  39  40  41  42  43  44  45  46 0
 3-21G
 ****


