%nproc=1
%NoSave
%Mem=1900MB
#P OB98/GEN NMR

erre ene a

0 1
  C     -285.126     470.695     482.506
  O     -285.658     471.488     481.460
  P     -285.803     473.071     481.642
  C     -285.447     475.198     480.241
  O     -285.290     473.783     480.300
  C     -285.031     475.722     478.873
  O     -283.602     475.602     478.685
  C     -285.644     474.970     477.705
  O     -287.022     475.267     477.540
  C     -284.746     475.417     476.561
  O     -285.145     476.714     476.082
  C     -283.374     475.506     477.260
  N     -282.518     474.379     476.936
  C     -282.480     474.003     475.590
  O     -283.206     474.557     474.764
  N     -281.622     472.996     475.215
  C     -280.958     472.343     476.113
  N     -280.080     471.395     475.681
  C     -281.092     472.602     477.565
  C     -281.863     473.636     477.898
  O     -285.223     473.617     482.905
  O     -287.384     473.325     481.596
  H     -287.640     473.873     482.359
  H     -284.381     477.076     475.589
  H     -280.570     471.982     478.277
  H     -282.007     473.917     478.932
  H     -282.858     476.431     476.977
  H     -284.782     474.735     475.706
  H     -285.525     473.885     477.860
  H     -285.301     476.789     478.823
  H     -279.996     471.258     474.677
  H     -284.827     475.654     481.018
  H     -279.298     471.073     476.248
  H     -286.497     475.449     480.449
  P     -287.872     474.268     476.618
  C     -290.069     472.915     476.869
  O     -289.203     473.885     477.423
  O     -287.011     472.917     476.638
  O     -288.098     474.747     475.217
  H     -287.062     472.480     475.767
  H     -290.709     472.518     477.666
  H     -289.508     472.087     476.427
  H     -290.701     473.378     476.103
  H     -285.107     469.669     482.202
  H     -285.738     470.797     483.378
  H     -284.131     471.019     482.729

 3  4  5  6  7  8  9  10  11  12  13  24  27  28  29  30  32 0
 6-311+G(2d,p)
 ****
 34  35 0
 6-311+G(2d,p)
 ****
 1  2  14  15  16  17  18  19  20  21  22  23  25  26 0
 3-21G
 ****
 31  33  36  37  38  39  40  41  42  43  44  45  46 0
 3-21G
 ****


