%nproc=1
%NoSave
%Mem=1900MB
#P OB98/GEN NMR

erre ene a

0 1
  C      -43.323     -98.218    -334.397
  O      -44.104     -99.324    -333.989
  H      -42.339     -98.579    -334.706
  H      -43.197     -97.513    -333.569
  H      -43.798     -97.717    -335.244
  P      -45.577     -99.002    -333.441
  C      -46.586    -100.419    -335.344
  O      -46.469    -100.243    -333.937
  C      -47.175    -101.794    -335.662
  O      -46.132    -102.791    -335.503
  C      -48.337    -102.192    -334.744
  O      -49.293    -102.940    -335.497
  C      -47.677    -103.110    -333.728
  O      -48.609    -103.991    -333.109
  C      -46.617    -103.792    -334.591
  N      -45.171    -107.787    -331.787
  C      -46.219    -107.596    -332.614
  N      -46.519    -106.500    -333.344
  C      -45.564    -105.561    -333.201
  C      -44.441    -105.613    -332.396
  C      -44.261    -106.792    -331.650
  N      -43.215    -106.985    -330.779
  N      -43.730    -104.432    -332.484
  C      -44.409    -103.682    -333.336
  N      -45.536    -104.321    -333.780
  O      -46.113     -97.655    -333.789
  O      -45.421     -99.295    -331.876
  H      -48.155    -104.454    -332.372
  H      -44.954    -100.140    -331.714
  H      -46.919    -108.427    -332.693
  H      -44.137    -102.678    -333.647
  H      -47.026    -104.629    -335.175
  H      -47.206    -102.511    -332.938
  H      -48.822    -101.338    -334.272
  H      -47.477    -101.815    -336.715
  H      -45.601    -100.324    -335.818
  H      -43.162    -107.864    -330.287
  H      -42.522    -106.259    -330.668
  H      -47.236     -99.626    -335.731
  P      -50.819    -102.444    -335.528
  C      -51.370    -103.291    -337.900
  O      -51.652    -103.404    -336.512
  O      -51.021    -100.985    -335.752
  O      -51.360    -102.884    -334.083
  H      -51.920    -102.167    -333.721
  H      -51.984    -103.977    -338.446
  H      -50.339    -103.519    -338.074
  H      -51.574    -102.292    -338.225

 6  7  8  9  10  11  12  13  14  15  25  28  32  33  34  35 0
 6-311+G(2d,p)
 ****
 36  39  40 0
 6-311+G(2d,p)
 ****
 1  2  3  4  5  16  17  18  19  20  21  22  23  24 0
 3-21G
 ****
 26  27  29  30  31  37  38  41  42  43  44  45  46  47 0
 3-21G
 ****
 48 0
 3-21G
 ****


