%nproc=1
%NoSave
%Mem=1900MB
#P OB98/GEN NMR

erre ene a

0 1
  C     -194.162      52.865     -18.629
  O     -193.334      53.822     -18.004
  H     -194.868      52.478     -17.890
  H     -193.567      52.031     -19.015
  H     -194.729      53.328     -19.442
  P     -192.129      54.460     -18.852
  C     -190.222      53.277     -20.152
  O     -191.084      53.248     -19.023
  C     -189.456      51.960     -20.266
  O     -190.343      50.874     -20.610
  C     -188.380      51.936     -21.348
  O     -187.218      52.673     -21.002
  C     -188.116      50.441     -21.425
  O     -187.323      50.032     -20.296
  C     -189.555      49.877     -21.322
  N     -190.150      49.593     -22.628
  C     -189.665      48.468     -23.311
  O     -188.778      47.773     -22.814
  N     -190.167      48.182     -24.556
  C     -191.066      48.959     -25.084
  N     -191.492      48.654     -26.342
  C     -191.617      50.140     -24.395
  C     -191.119      50.398     -23.188
  O     -191.550      55.733     -18.328
  O     -192.714      54.590     -20.339
  H     -187.193      49.068     -20.376
  H     -192.007      54.992     -20.902
  H     -192.353      50.755     -24.885
  H     -191.464      51.262     -22.624
  H     -189.572      48.963     -20.718
  H     -187.576      50.144     -22.328
  H     -188.784      52.271     -22.310
  H     -189.039      51.735     -19.274
  H     -191.061      47.860     -26.799
  H     -189.537      54.122     -20.038
  H     -191.964      49.344     -26.918
  H     -190.806      53.416     -21.069
  P     -186.235      53.125     -22.192
  C     -184.502      51.836     -23.653
  O     -185.684      51.779     -22.871
  O     -184.967      53.697     -21.406
  O     -186.803      54.113     -23.165
  H     -185.032      54.668     -21.291
  H     -184.276      50.860     -24.029
  H     -183.690      52.182     -23.048
  H     -184.648      52.509     -24.472

 6  7  8  9  10  11  12  13  14  15  16  26  30  31  32  33  35 0
 6-311+G(2d,p)
 ****
 37  38 0
 6-311+G(2d,p)
 ****
 1  2  3  4  5  17  18  19  20  21  22  23  24  25 0
 3-21G
 ****
 27  28  29  34  36  39  40  41  42  43  44  45  46 0
 3-21G
 ****


