%nproc=1
%NoSave
%Mem=1900MB
#P OB98/GEN NMR

erre ene a

0 1
  C     -967.321     357.166    -896.150
  O     -965.918     356.968    -895.940
  P     -965.016     356.789    -897.260
  C     -963.374     358.780    -896.820
  O     -964.417     358.239    -897.650
  C     -963.961     359.818    -895.880
  O     -964.825     359.204    -894.860
  C     -962.895     360.566    -895.080
  O     -962.265     361.546    -895.900
  C     -963.767     361.171    -893.960
  O     -964.468     362.332    -894.430
  C     -964.741     360.024    -893.680
  N     -964.631     359.752    -888.570
  C     -965.049     360.709    -889.410
  N     -965.049     360.704    -890.740
  C     -964.548     359.558    -891.230
  C     -964.057     358.478    -890.500
  C     -964.114     358.594    -889.090
  N     -963.652     357.630    -888.250
  N     -963.635     357.463    -891.320
  C     -963.814     357.952    -892.560
  N     -964.384     359.201    -892.530
  O     -966.090     356.502    -898.420
  O     -964.013     355.674    -897.140
  H     -965.099     362.587    -893.730
  H     -966.037     355.567    -898.680
  H     -965.461     361.601    -888.930
  H     -963.572     357.413    -893.470
  H     -965.776     360.386    -893.480
  H     -963.162     361.460    -893.090
  H     -962.168     359.880    -894.670
  H     -964.579     360.517    -896.450
  H     -962.602     359.240    -897.440
  H     -963.655     357.826    -887.250
  H     -963.201     356.797    -888.620
  H     -962.911     357.960    -896.270
  P     -960.843     361.166    -896.530
  C     -960.990     361.876    -899.010
  O     -961.168     360.820    -898.080
  O     -960.581     359.708    -895.890
  O     -959.762     362.157    -896.310
  H     -961.375     359.131    -895.960
  H     -961.241     361.503    -900.000
  H     -959.952     362.221    -898.970
  H     -961.672     362.694    -898.750
  H     -967.812     357.271    -895.205
  H     -967.726     356.323    -896.670
  H     -967.473     358.051    -896.732

 3  4  5  6  7  8  9  10  11  12  22  25  29  30  31  32 0
 6-311+G(2d,p)
 ****
 33  36  37 0
 6-311+G(2d,p)
 ****
 1  2  13  14  15  16  17  18  19  20  21  23  24  26 0
 3-21G
 ****
 27  28  34  35  38  39  40  41  42  43  44  45  46  47  48 0
 3-21G
 ****


