%nproc=1
%NoSave
%Mem=1900MB
#P OB98/GEN NMR

erre ene a

0 1
  C      -99.154    -406.381      17.910
  O      -99.333    -406.111      19.309
  P      -99.787    -404.636      19.747
  C     -101.641    -405.563      21.317
  O     -100.507    -404.722      21.178
  C     -101.995    -405.745      22.801
  O     -100.860    -406.210      23.563
  C     -102.441    -404.461      23.479
  O     -103.816    -404.180      23.231
  C     -102.234    -404.824      24.949
  O     -103.344    -405.619      25.413
  C     -100.959    -405.675      24.895
  N      -98.498    -402.834      28.392
  C      -99.712    -403.424      28.409
  N     -100.303    -404.140      27.431
  C      -99.496    -404.247      26.361
  C      -98.232    -403.706      26.200
  C      -97.725    -402.967      27.288
  N      -96.484    -402.372      27.273
  N      -97.712    -404.024      24.962
  C      -98.653    -404.749      24.385
  N      -99.745    -404.906      25.183
  O     -100.998    -404.321      18.744
  O      -98.700    -403.612      19.632
  H     -103.646    -406.149      24.641
  H     -101.003    -403.367      18.520
  H     -100.296    -403.297      29.313
  H      -98.568    -405.185      23.394
  H     -100.991    -406.509      25.601
  H     -102.189    -403.944      25.597
  H     -101.782    -403.621      23.208
  H     -102.797    -406.502      22.868
  H     -101.455    -406.540      20.860
  H      -96.174    -401.883      28.101
  H      -95.900    -402.491      26.455
  H     -102.485    -405.122      20.766
  P     -104.178    -402.723      22.682
  C     -106.274    -402.710      21.149
  O     -105.759    -402.705      22.476
  O     -103.584    -402.732      21.198
  O     -103.606    -401.608      23.501
  H     -103.308    -401.830      20.940
  H     -107.324    -403.003      21.180
  H     -105.719    -403.397      20.507
  H     -106.199    -401.685      20.741
  H      -98.853    -407.399      17.779
  H      -98.400    -405.733      17.515
  H     -100.076    -406.212      17.393

 3  4  5  6  7  8  9  10  11  12  22  25  29  30  31  32 0
 6-311+G(2d,p)
 ****
 33  36  37 0
 6-311+G(2d,p)
 ****
 1  2  13  14  15  16  17  18  19  20  21  23  24  26 0
 3-21G
 ****
 27  28  34  35  38  39  40  41  42  43  44  45  46  47  48 0
 3-21G
 ****


