%nproc=1
%NoSave
%Mem=1900MB
#P OB98/GEN NMR

erre ene a

0 1
  C     -228.815      54.794     -62.870
  O     -229.910      55.370     -62.178
  P     -231.332      54.630     -62.286
  C     -232.224      55.081     -64.720
  O     -231.504      54.240     -63.832
  C     -232.784      54.260     -65.886
  O     -231.713      53.535     -66.535
  C     -233.799      53.198     -65.486
  O     -235.076      53.765     -65.219
  C     -233.757      52.276     -66.696
  O     -234.550      52.814     -67.766
  C     -232.260      52.316     -67.072
  N     -231.513      51.152     -66.606
  C     -231.851      49.931     -67.185
  O     -232.721      49.810     -68.046
  N     -231.158      48.840     -66.720
  C     -230.235      48.839     -65.717
  O     -229.679      47.828     -65.314
  C     -229.945      50.152     -65.121
  C     -230.585      51.227     -65.583
  O     -232.323      55.870     -62.066
  O     -231.488      53.509     -61.313
  H     -231.921      56.711     -62.343
  H     -234.072      53.601     -68.098
  H     -231.367      47.945     -67.145
  H     -229.222      50.191     -64.315
  H     -230.394      52.202     -65.149
  H     -232.146      52.385     -68.163
  H     -234.137      51.271     -66.478
  H     -233.446      52.660     -64.601
  H     -233.218      54.952     -66.620
  H     -231.554      55.853     -65.106
  H     -233.036      55.569     -64.175
  P     -235.842      53.217     -63.916
  C     -237.062      51.429     -65.383
  O     -236.277      51.711     -64.245
  O     -237.209      54.051     -63.988
  O     -235.078      53.402     -62.645
  H     -237.567      54.107     -64.894
  H     -236.949      50.373     -65.633
  H     -236.753      52.030     -66.242
  H     -238.111      51.630     -65.159
  H     -227.940      55.388     -62.710
  H     -229.034      54.757     -63.917
  H     -228.645      53.802     -62.506

 3  4  5  6  7  8  9  10  11  12  13  24  28  29  30  31  32 0
 6-311+G(2d,p)
 ****
 33  34 0
 6-311+G(2d,p)
 ****
 1  2  14  15  16  17  18  19  20  21  22  23  25  26  27 0
 3-21G
 ****
 35  36  37  38  39  40  41  42  43  44  45 0
 3-21G
 ****


