%nproc=1
%NoSave
%Mem=1900MB
#P OB98/GEN NMR

erre ene a

0 1
  C      -99.171      48.031     -85.728
  O      -99.968      47.267     -84.817
  P     -100.057      45.686     -85.061
  C     -102.652      45.492     -85.177
  O     -101.454      45.159     -84.483
  C     -103.866      44.944     -84.426
  O     -104.178      45.755     -83.279
  C     -105.135      44.932     -85.264
  O     -105.130      43.842     -86.164
  C     -106.220      44.845     -84.198
  O     -106.545      43.482     -83.882
  C     -105.573      45.551     -82.984
  N     -106.229      46.802     -82.645
  C     -107.570      46.704     -82.256
  O     -108.133      45.607     -82.235
  N     -108.243      47.853     -81.924
  C     -107.640      48.998     -82.002
  N     -108.360      50.103     -81.666
  C     -106.234      49.147     -82.436
  C     -105.595      48.019     -82.740
  O      -98.983      45.093     -84.032
  O      -99.759      45.272     -86.467
  H     -105.686      43.018     -83.806
  H      -98.574      44.290     -84.396
  H     -105.777      50.124     -82.492
  H     -104.561      48.035     -83.071
  H     -105.612      44.901     -82.100
  H     -107.146      45.322     -84.530
  H     -105.229      45.880     -85.811
  H     -103.635      43.924     -84.087
  H     -109.321      49.963     -81.378
  H     -102.624      45.085     -86.189
  H     -107.991      51.044     -81.698
  H     -102.711      46.582     -85.279
  P     -105.476      44.137     -87.697
  C     -107.313      42.347     -87.831
  O     -106.030      42.747     -88.276
  O     -104.016      44.213     -88.363
  O     -106.286      45.353     -87.996
  H     -104.088      44.487     -89.295
  H     -107.651      41.513     -88.447
  H     -108.027      43.167     -87.926
  H     -107.256      42.016     -86.791
  H      -99.201      49.063     -85.449
  H      -99.556      47.919     -86.720
  H      -98.160      47.682     -85.697

 3  4  5  6  7  8  9  10  11  12  13  21  23  27  28  29  30  32 0
 6-311+G(2d,p)
 ****
 34  35 0
 6-311+G(2d,p)
 ****
 1  2  14  15  16  17  18  19  20  22  24  25  26 0
 3-21G
 ****
 31  33  36  37  38  39  40  41  42  43  44  45  46 0
 3-21G
 ****


