%nproc=1
%NoSave
%Mem=1900MB
#P OB98/GEN NMR

erre ene a

0 1
  C      439.900     -66.992     289.337
  O      440.550     -67.918     290.185
  H      438.861     -66.885     289.667
  H      439.909     -67.364     288.310
  H      440.388     -66.015     289.388
  P      442.139     -68.070     290.003
  C      442.019     -70.127     288.423
  O      442.372     -68.759     288.572
  C      442.465     -70.641     287.054
  O      441.657     -70.051     286.011
  C      443.915     -70.322     286.705
  O      444.819     -71.250     287.283
  C      443.875     -70.459     285.192
  O      443.884     -71.860     284.831
  C      442.517     -69.835     284.852
  N      443.406     -66.337     281.291
  C      443.460     -67.712     281.213
  N      443.806     -68.239     280.018
  N      443.196     -68.512     282.214
  C      442.873     -67.849     283.352
  C      442.788     -66.489     283.556
  C      443.071     -65.617     282.433
  O      443.015     -64.393     282.440
  N      442.417     -66.195     284.842
  C      442.302     -67.367     285.425
  N      442.576     -68.413     284.566
  O      442.522     -69.235     291.038
  O      442.935     -66.831     290.263
  H      443.718     -71.901     283.870
  H      443.399     -69.034     291.422
  H      443.628     -65.770     280.491
  H      442.024     -67.524     286.456
  H      442.039     -70.311     283.991
  H      444.734     -70.001     284.704
  H      444.072     -67.685     279.217
  H      444.174     -69.284     286.968
  H      443.824     -69.250     279.925
  H      442.292     -71.726     287.029
  H      440.934     -70.232     288.514
  H      442.503     -70.706     289.221
  P      446.304     -70.738     287.627
  C      447.269     -72.218     285.722
  O      447.143     -70.904     286.271
  O      446.882     -71.899     288.570
  O      446.369     -69.396     288.283
  H      447.603     -71.547     289.122
  H      447.850     -72.175     284.825
  H      446.297     -72.606     285.499
  H      447.754     -72.856     286.431

 6  7  8  9  10  11  12  13  14  15  26  29  33  34 0
 6-311+G(2d,p)
 ****
 36  38  39  40  41 0
 6-311+G(2d,p)
 ****
 1  2  3  4  5  16  17  18  19  20  21  22  23  24  25 0
 3-21G
 ****
 27  28  30  31  32  35  37  42  43  44  45  46  47 0
 3-21G
 ****
 48  49 0
 3-21G
 ****


