%nproc=1
%NoSave
%Mem=1900MB
#P OB98/GEN NMR

erre ene a

0 1
  C      142.095     251.605      44.813
  O      142.931     252.313      43.877
  P      144.394     251.728      43.546
  C      145.806     253.255      45.124
  O      145.377     251.941      44.796
  C      146.524     253.283      46.490
  O      146.912     254.655      46.818
  C      145.679     252.760      47.658
  O      146.587     252.134      48.584
  C      145.116     254.038      48.260
  O      144.669     253.885      49.594
  C      146.331     254.966      48.103
  N      146.009     256.391      48.196
  C      146.819     257.193      49.000
  O      147.750     256.771      49.684
  N      146.506     258.528      49.017
  C      145.464     259.122      48.361
  O      145.219     260.322      48.444
  C      144.628     258.224      47.554
  C      144.929     256.925      47.510
  O      144.943     252.801      42.491
  O      144.414     250.358      42.951
  H      144.226     254.713      49.858
  H      145.355     252.337      41.735
  H      147.094     259.124      49.576
  H      143.795     258.656      47.017
  H      144.335     256.246      46.909
  H      147.083     254.716      48.865
  H      144.262     254.375      47.657
  H      144.903     252.050      47.344
  H      147.454     252.708      46.395
  H      144.938     253.921      45.162
  H      146.483     253.615      44.337
  P      146.958     250.589      48.362
  C      145.353     249.558      50.151
  O      145.680     249.720      48.786
  O      147.984     250.364      49.577
  O      147.560     250.282      47.022
  H      147.656     250.738      50.411
  H      145.484     250.494      50.706
  H      145.981     248.780      50.590
  H      144.304     249.254      50.230
  H      141.164     252.121      44.921
  H      142.586     251.554      45.762
  H      141.914     250.614      44.451

 3  4  5  6  7  8  9  10  11  12  13  23  28  29  30  31  32 0
 6-311+G(2d,p)
 ****
 33  34 0
 6-311+G(2d,p)
 ****
 1  2  14  15  16  17  18  19  20  21  22  24  25  26 0
 3-21G
 ****
 27  35  36  37  38  39  40  41  42  43  44  45 0
 3-21G
 ****


