%nproc=1
%NoSave
%Mem=1900MB
#P OB98/GEN NMR

erre ene a

0 1
  C       -3.025     -38.094    -101.434
  O       -1.927     -37.466    -102.099
  P       -0.793     -38.381    -102.765
  C       -1.976     -39.195    -104.905
  O       -0.974     -38.347    -104.362
  C       -1.936     -39.174    -106.439
  O       -1.962     -37.802    -106.933
  C       -0.669     -39.831    -107.004
  O       -0.950     -40.474    -108.258
  C        0.232     -38.645    -107.283
  O        1.249     -38.965    -108.231
  C       -0.793     -37.616    -107.759
  N       -1.852     -32.720    -108.826
  C       -2.581     -33.850    -108.972
  N       -2.244     -35.115    -108.644
  C       -1.014     -35.152    -108.101
  C       -0.157     -34.084    -107.880
  C       -0.619     -32.816    -108.277
  N        0.135     -31.670    -108.156
  N        1.023     -34.508    -107.306
  C        0.901     -35.819    -107.228
  N       -0.322     -36.250    -107.664
  O       -0.632     -39.743    -102.178
  O        0.537     -37.505    -102.554
  H        0.806     -39.289    -109.037
  H        1.268     -38.097    -102.289
  H       -3.565     -33.720    -109.416
  H        1.668     -36.496    -106.881
  H       -1.093     -37.792    -108.800
  H        0.718     -38.320    -106.356
  H       -0.197     -40.559    -106.335
  H       -2.833     -39.670    -106.827
  H       -2.960     -38.876    -104.554
  H       -0.231     -30.827    -108.574
  H        1.106     -31.750    -107.887
  H       -1.836     -40.211    -104.518
  P       -0.621     -42.050    -108.334
  C       -2.945     -43.015    -107.625
  O       -2.015     -42.770    -108.656
  O        0.128     -42.560    -107.147
  O        0.202     -42.148    -109.704
  H       -0.223     -41.720    -110.466
  H       -3.872     -43.391    -108.068
  H       -3.172     -42.096    -107.076
  H       -2.554     -43.770    -106.937
  H       -3.685     -37.345    -101.049
  H       -2.658     -38.694    -100.628
  H       -3.555     -38.714    -102.127

 3  4  5  6  7  8  9  10  11  12  22  25  29  30  31  32 0
 6-311+G(2d,p)
 ****
 33  36  37 0
 6-311+G(2d,p)
 ****
 1  2  13  14  15  16  17  18  19  20  21  23  24  26 0
 3-21G
 ****
 27  28  34  35  38  39  40  41  42  43  44  45  46  47  48 0
 3-21G
 ****


