%nproc=1
%NoSave
%Mem=1900MB
#P OB98/GEN NMR

erre ene a

0 1
  C     -134.311     -70.863      18.663
  O     -132.942     -70.886      18.266
  P     -132.221     -69.765      17.384
  C     -132.205     -70.718      14.930
  O     -132.790     -69.848      15.889
  C     -131.471     -69.923      13.836
  O     -132.409     -68.973      13.244
  C     -130.295     -69.109      14.391
  O     -129.132     -69.145      13.562
  C     -130.916     -67.744      14.653
  O     -129.962     -66.696      14.750
  C     -131.928     -67.633      13.512
  N     -133.701     -62.842      13.442
  C     -132.429     -63.307      13.176
  N     -131.495     -62.379      12.866
  N     -132.092     -64.570      13.228
  C     -133.096     -65.382      13.625
  C     -134.400     -65.039      13.931
  C     -134.775     -63.646      13.825
  O     -135.890     -63.179      14.029
  N     -135.133     -66.141      14.288
  C     -134.283     -67.145      14.217
  N     -133.028     -66.735      13.809
  O     -130.737     -69.671      17.536
  O     -132.852     -68.384      17.934
  H     -129.504     -66.789      15.605
  H     -132.153     -67.707      17.845
  H     -133.910     -61.858      13.363
  H     -134.519     -68.183      14.432
  H     -131.474     -67.253      12.593
  H     -131.436     -67.797      15.623
  H     -131.653     -61.386      12.927
  H     -129.941     -69.531      15.339
  H     -130.524     -62.699      12.891
  H     -131.150     -70.617      13.049
  H     -133.034     -71.285      14.487
  H     -131.537     -71.434      15.412
  P     -127.899     -70.155      13.617
  C     -126.379     -69.184      15.442
  O     -127.328     -70.187      15.115
  O     -126.728     -69.429      12.800
  O     -128.170     -71.509      13.032
  H     -126.481     -69.971      12.023
  H     -125.883     -69.470      16.374
  H     -126.893     -68.230      15.593
  H     -125.627     -69.085      14.654
  H     -134.528     -71.734      19.245
  H     -134.934     -70.851      17.793
  H     -134.498     -69.987      19.248

 3  4  5  6  7  8  9  10  11  12  23  26  30  31 0
 6-311+G(2d,p)
 ****
 33  35  36  37  38 0
 6-311+G(2d,p)
 ****
 1  2  13  14  15  16  17  18  19  20  21  22  24  25 0
 3-21G
 ****
 27  28  29  32  34  39  40  41  42  43  44  45  46  47  48  49 0
 3-21G
 ****


