%nproc=1
%NoSave
%Mem=1900MB
#P OB98/GEN NMR

erre ene a

0 1
  C      340.183     379.796     350.554
  O      341.234     378.887     350.811
  H      339.348     379.558     351.215
  H      339.848     379.710     349.517
  H      340.515     380.819     350.756
  P      342.547     379.031     349.897
  C      341.612     378.120     347.673
  O      341.978     379.279     348.417
  C      341.283     378.495     346.230
  O      342.447     379.136     345.643
  C      340.925     377.291     345.353
  O      339.920     377.680     344.413
  C      342.218     377.012     344.605
  O      342.002     376.304     343.387
  C      342.773     378.427     344.435
  N      346.412     376.980     341.181
  C      345.069     377.024     341.074
  N      344.170     377.451     341.988
  C      344.795     377.909     343.086
  C      346.153     377.931     343.342
  C      346.985     377.422     342.326
  N      348.352     377.340     342.440
  N      346.400     378.437     344.603
  C      345.211     378.729     345.094
  N      344.210     378.409     344.220
  O      343.541     377.926     350.020
  O      343.081     380.483     350.310
  H      341.498     375.488     343.589
  H      342.357     381.137     350.325
  H      344.656     376.666     340.133
  H      345.020     379.156     346.075
  H      342.322     378.957     343.587
  H      342.887     376.409     345.230
  H      340.589     376.427     345.922
  H      340.477     379.239     346.233
  H      340.742     377.639     348.135
  H      348.872     376.966     341.661
  H      348.802     377.672     343.281
  H      342.455     377.422     347.704
  P      338.382     377.635     344.862
  C      338.157     375.075     345.084
  O      338.145     376.324     345.763
  O      337.383     377.834     343.772
  O      338.294     378.814     345.944
  H      337.463     379.311     345.809
  H      337.990     374.285     345.787
  H      339.106     374.936     344.610
  H      337.384     375.064     344.344

 6  7  8  9  10  11  12  13  14  15  25  28  32  33  34  35 0
 6-311+G(2d,p)
 ****
 36  39  40 0
 6-311+G(2d,p)
 ****
 1  2  3  4  5  16  17  18  19  20  21  22  23  24 0
 3-21G
 ****
 26  27  29  30  31  37  38  41  42  43  44  45  46  47 0
 3-21G
 ****
 48 0
 3-21G
 ****


