%nproc=1
%NoSave
%Mem=1900MB
#P OB98/GEN NMR

erre ene a

0 1
  C     -144.597    -217.555    -330.242
  O     -144.947    -218.891    -330.589
  P     -144.762    -220.023    -329.462
  C     -142.689    -220.708    -330.866
  O     -143.230    -220.493    -329.569
  C     -141.267    -220.157    -330.953
  O     -141.267    -218.735    -330.719
  C     -140.299    -220.740    -329.930
  O     -139.781    -221.999    -330.332
  C     -139.202    -219.691    -329.932
  O     -138.352    -219.878    -331.080
  C     -140.007    -218.387    -330.083
  N     -138.619    -214.555    -326.996
  C     -138.113    -214.998    -328.164
  N     -138.529    -216.035    -328.925
  C     -139.567    -216.667    -328.339
  C     -140.162    -216.350    -327.128
  C     -139.660    -215.228    -326.443
  N     -140.199    -214.759    -325.261
  N     -141.196    -217.220    -326.857
  C     -141.228    -218.039    -327.888
  N     -140.265    -217.738    -328.812
  O     -145.576    -221.266    -330.061
  O     -145.241    -219.640    -328.101
  H     -137.608    -219.251    -330.990
  H     -145.847    -221.869    -329.342
  H     -137.262    -214.444    -328.548
  H     -141.926    -218.862    -328.003
  H     -139.506    -217.662    -330.733
  H     -138.564    -219.737    -329.044
  H     -140.758    -220.786    -328.931
  H     -140.895    -220.334    -331.973
  H     -143.312    -220.195    -331.608
  H     -139.905    -213.857    -324.932
  H     -141.090    -215.144    -324.963
  H     -142.698    -221.786    -331.083
  P     -140.344    -223.295    -329.564
  C     -138.082    -223.361    -328.279
  O     -139.494    -223.374    -328.204
  O     -139.783    -224.509    -330.439
  O     -141.829    -223.328    -329.419
  H     -140.355    -225.293    -330.341
  H     -137.681    -223.109    -327.290
  H     -137.730    -222.612    -328.995
  H     -137.713    -224.350    -328.567
  H     -144.769    -216.912    -331.080
  H     -143.563    -217.517    -329.969
  H     -145.196    -217.232    -329.416

 3  4  5  6  7  8  9  10  11  12  22  25  29  30  31  32 0
 6-311+G(2d,p)
 ****
 33  36  37 0
 6-311+G(2d,p)
 ****
 1  2  13  14  15  16  17  18  19  20  21  23  24  26 0
 3-21G
 ****
 27  28  34  35  38  39  40  41  42  43  44  45  46  47  48 0
 3-21G
 ****


