%nproc=1
%NoSave
%Mem=1900MB
#P OB98/GEN NMR

erre ene a

0 1
  C      -21.712     -62.124      38.949
  O      -22.275     -62.872      37.882
  P      -21.982     -64.450      37.844
  C      -19.998     -64.177      36.206
  O      -20.423     -64.615      37.489
  C      -18.559     -64.604      35.936
  O      -17.681     -63.912      36.867
  C      -18.306     -66.111      36.098
  O      -17.479     -66.571      35.018
  C      -17.486     -66.200      37.375
  O      -16.674     -67.368      37.408
  C      -16.708     -64.886      37.295
  N      -12.694     -62.548      39.278
  C      -13.151     -62.564      37.975
  N      -12.396     -61.910      37.063
  N      -14.245     -63.170      37.595
  C      -14.915     -63.755      38.618
  C      -14.569     -63.800      39.950
  C      -13.323     -63.177      40.343
  O      -12.819     -63.204      41.464
  N      -15.510     -64.474      40.687
  C      -16.421     -64.840      39.806
  N      -16.080     -64.471      38.529
  O      -22.728     -64.917      36.506
  O      -22.462     -65.218      39.026
  H      -16.203     -67.364      38.263
  H      -23.365     -65.626      36.715
  H      -11.833     -62.081      39.511
  H      -17.318     -65.399      40.039
  H      -15.927     -64.948      36.527
  H      -18.163     -66.217      38.235
  H      -11.562     -61.394      37.293
  H      -19.215     -66.717      36.149
  H      -12.727     -61.891      36.107
  H      -18.279     -64.270      34.929
  H      -20.064     -63.085      36.158
  H      -20.663     -64.604      35.447
  P      -18.058     -67.801      34.163
  C      -16.873     -69.546      35.693
  O      -18.088     -69.051      35.164
  O      -16.862     -68.147      33.156
  O      -19.336     -67.497      33.452
  H      -17.206     -68.589      32.357
  H      -16.026     -68.889      35.469
  H      -16.676     -70.533      35.269
  H      -16.970     -69.639      36.778
  H      -21.988     -61.095      38.848
  H      -20.646     -62.212      38.923
  H      -22.078     -62.501      39.881

 3  4  5  6  7  8  9  10  11  12  23  26  30  31  33  0
 6-311+G(2d,p)
 ****
 35  36  37  38 0
 6-311+G(2d,p)
 ****
 1  2  13  14  15  16  17  18  19  20  21  22  24  25  27  28  29 0
 3-21G
 ****
 32  34  39  40  41  42  43  44  45  46  47  48  49 0
 3-21G
 ****


