%nproc=1
%NoSave
%Mem=1900MB
#P OB98/GEN NMR

erre ene a

0 1
  C       99.028    -683.840     155.815
  O       98.753    -683.589     154.433
  P       99.758    -682.861     153.429
  C       99.755    -684.499     151.388
  O      100.441    -683.977     152.510
  C       99.449    -686.007     151.503
  O       98.437    -686.213     152.530
  C       98.864    -686.541     150.205
  O       99.721    -686.921     149.146
  C       97.897    -687.631     150.640
  O       98.493    -688.928     150.631
  C       97.523    -687.226     152.072
  N       92.650    -688.343     153.179
  C       93.745    -689.182     153.123
  N       93.521    -690.490     153.342
  N       94.964    -688.773     152.858
  C       95.040    -687.448     152.570
  C       94.021    -686.521     152.581
  C       92.687    -686.978     152.926
  O       91.688    -686.277     153.002
  N       94.475    -685.279     152.216
  C       95.753    -685.459     151.971
  N       96.149    -686.758     152.182
  O      100.660    -681.843     154.049
  O       98.774    -682.085     152.417
  H       99.428    -688.838     150.890
  H       99.236    -681.265     152.151
  H       91.744    -688.708     153.406
  H       96.438    -684.688     151.646
  H       97.622    -688.073     152.759
  H       97.037    -687.680     149.958
  H       92.599    -690.890     153.429
  H       98.229    -685.748     149.787
  H       94.279    -691.137     153.087
  H      100.336    -686.556     151.846
  H      100.381    -684.308     150.513
  H       98.827    -683.947     151.224
  P       99.770    -686.259     147.690
  C      102.275    -686.014     147.170
  O      101.090    -685.355     147.601
  O       98.596    -685.172     147.709
  O       99.589    -687.227     146.555
  H       98.368    -684.908     146.793
  H      103.135    -685.400     147.437
  H      102.256    -686.131     146.080
  H      102.375    -687.002     147.641
  H       98.193    -684.339     156.260
  H       99.199    -682.912     156.319
  H       99.898    -684.457     155.899

 3  4  5  6  7  8  9  10  11  12  23  26  30  31 0
 6-311+G(2d,p)
 ****
 33  35  36  37  38 0
 6-311+G(2d,p)
 ****
 1  2  13  14  15  16  17  18  19  20  21  22  24  25 0
 3-21G
 ****
 27  28  29  32  34  39  40  41  42  43  44  45  46  47  48  49 0
 3-21G
 ****


