%nproc=1
%NoSave
%Mem=1900MB
#P OB98/GEN NMR

erre ene a

0 1
  C     -573.684     365.084    -873.277
  O     -573.307     364.117    -874.243
  P     -574.358     362.994    -874.743
  C     -573.815     360.690    -873.673
  O     -574.452     361.961    -873.512
  C     -572.344     360.793    -873.302
  O     -572.220     361.453    -872.016
  C     -571.631     359.447    -873.146
  O     -571.343     358.885    -874.403
  C     -570.431     359.856    -872.302
  O     -569.413     360.457    -873.131
  C     -571.042     360.916    -871.366
  N     -571.360     360.393    -870.038
  C     -570.309     359.765    -869.351
  O     -569.182     359.661    -869.846
  N     -570.540     359.281    -868.089
  C     -571.727     359.396    -867.575
  N     -571.902     358.952    -866.293
  C     -572.870     359.991    -868.289
  C     -572.613     360.482    -869.498
  O     -574.023     362.371    -876.055
  O     -575.776     363.725    -874.693
  H     -569.871     361.095    -873.721
  H     -576.002     364.184    -875.539
  H     -573.846     360.068    -867.818
  H     -573.398     360.961    -870.076
  H     -570.330     361.768    -871.257
  H     -569.964     359.014    -871.765
  H     -572.264     358.749    -872.575
  H     -571.840     361.420    -874.052
  H     -571.047     358.716    -865.788
  H     -573.892     360.399    -874.728
  H     -572.684     359.261    -865.730
  H     -574.349     359.948    -873.055
  P     -571.229     357.279    -874.500
  C     -568.797     356.385    -874.677
  O     -569.820     356.894    -873.829
  O     -571.027     357.018    -876.066
  O     -572.426     356.565    -873.948
  H     -571.854     356.734    -876.473
  H     -567.856     356.398    -874.128
  H     -568.696     357.002    -875.576
  H     -569.032     355.344    -874.940
  H     -572.856     365.733    -873.080
  H     -573.973     364.591    -872.373
  H     -574.507     365.658    -873.649

 3  4  5  6  7  8  9  10  11  12  13  23  27  28  29  30  32 0
 6-311+G(2d,p)
 ****
 34  35 0
 6-311+G(2d,p)
 ****
 1  2  14  15  16  17  18  19  20  21  22  24  25  26 0
 3-21G
 ****
 31  33  36  37  38  39  40  41  42  43  44  45  46 0
 3-21G
 ****


