%nproc=1
%NoSave
%Mem=1900MB
#P OB98/GEN NMR

erre ene a

0 1
  C     -324.365     335.345     181.461
  O     -323.673     335.434     180.228
  H     -325.280     335.936     181.389
  H     -323.747     335.743     182.270
  H     -324.623     334.302     181.669
  P     -322.263     334.675     180.139
  C     -320.991     336.525     181.418
  O     -321.463     335.174     181.439
  C     -319.686     336.648     182.211
  O     -318.679     335.805     181.576
  C     -319.130     338.076     182.258
  O     -318.511     338.299     183.528
  C     -318.058     338.061     181.185
  O     -317.068     339.077     181.387
  C     -317.530     336.635     181.295
  N     -313.250     337.071     178.575
  C     -313.566     337.456     179.836
  N     -314.734     337.275     180.490
  C     -315.603     336.575     179.738
  C     -315.417     336.108     178.451
  C     -314.172     336.390     177.858
  N     -313.846     336.028     176.573
  N     -316.557     335.465     178.002
  C     -317.412     335.531     179.007
  N     -316.875     336.204     180.074
  O     -321.530     334.819     178.846
  O     -322.663     333.177     180.538
  H     -317.514     339.950     181.406
  H     -323.239     333.159     181.324
  H     -312.790     337.982     180.384
  H     -318.420     335.120     179.021
  H     -316.809     336.512     182.114
  H     -318.506     338.235     180.201
  H     -319.887     338.843     182.078
  H     -319.849     336.245     183.216
  H     -321.746     337.191     181.844
  H     -312.935     336.272     176.222
  H     -314.513     335.517     176.012
  H     -320.824     336.810     180.366
  P     -319.434     338.713     184.777
  C     -319.501     341.265     184.413
  O     -320.240     340.046     184.405
  O     -318.758     338.738     186.104
  O     -320.589     337.596     184.747
  H     -320.779     337.308     185.669
  H     -320.148     342.076     184.150
  H     -318.701     341.202     183.705
  H     -319.099     341.432     185.391

 6  7  8  9  10  11  12  13  14  15  25  28  32  33  34  35 0
 6-311+G(2d,p)
 ****
 36  39  40 0
 6-311+G(2d,p)
 ****
 1  2  3  4  5  16  17  18  19  20  21  22  23  24 0
 3-21G
 ****
 26  27  29  30  31  37  38  41  42  43  44  45  46  47 0
 3-21G
 ****
 48 0
 3-21G
 ****


