%nproc=1
%NoSave
%Mem=1900MB
#P OB98/GEN NMR

erre ene a

0 1
  C       -8.398     -11.653    -147.485
  O       -7.799     -12.932    -147.486
  H       -9.387     -11.726    -147.950
  H       -7.793     -10.948    -148.061
  H       -8.516     -11.293    -146.461
  P       -6.294     -13.026    -146.939
  C       -5.077     -12.994    -149.238
  O       -5.359     -12.305    -148.023
  C       -3.813     -12.422    -149.868
  O       -4.115     -11.165    -150.523
  C       -2.709     -12.097    -148.866
  O       -1.986     -13.247    -148.460
  C       -1.858     -11.137    -149.678
  O       -0.931     -11.831    -150.523
  C       -2.909     -10.375    -150.508
  N       -3.141      -9.028    -149.990
  C       -2.617      -7.991    -150.759
  O       -2.003      -8.167    -151.810
  N       -2.795      -6.732    -150.254
  C       -3.383      -6.421    -149.065
  O       -3.460      -5.273    -148.644
  C       -3.899      -7.562    -148.284
  C       -3.753      -8.797    -148.775
  O       -5.943     -14.581    -147.106
  O       -6.103     -12.558    -145.537
  H       -5.939     -15.011    -146.231
  H       -0.603     -11.170    -151.164
  H       -2.428      -5.964    -150.798
  H       -4.371      -7.349    -147.336
  H       -4.115      -9.651    -148.219
  H       -2.579     -10.288    -151.553
  H       -1.279     -10.486    -149.028
  H       -3.127     -11.565    -148.004
  H       -3.449     -13.128    -150.625
  H       -5.912     -12.865    -149.936
  H       -4.962     -14.060    -149.024
  P       -1.900     -13.554    -146.885
  C        0.679     -13.435    -146.379
  O       -0.588     -12.795    -146.363
  O       -1.492     -15.104    -146.912
  O       -3.164     -13.240    -146.156
  H       -1.010     -15.339    -147.724
  H        1.421     -12.767    -145.993
  H        0.930     -13.705    -147.384
  H        0.642     -14.315    -145.772

 6  7  8  9  10  11  12  13  14  15  16  27  31  32  33  34  35 0
 6-311+G(2d,p)
 ****
 36  37 0
 6-311+G(2d,p)
 ****
 1  2  3  4  5  17  18  19  20  21  22  23  24  25 0
 3-21G
 ****
 26  28  29  30  38  39  40  41  42  43  44  45 0
 3-21G
 ****


