%nproc=1
%NoSave
%Mem=1900MB
#P OB98/GEN NMR

erre ene a

0 1
  C     -162.226    -125.783     -94.258
  O     -162.194    -124.390     -93.996
  P     -163.276    -123.797     -92.969
  C     -164.213    -122.394     -94.988
  O     -164.471    -123.233     -93.874
  C     -165.115    -122.782     -96.162
  O     -165.010    -124.199     -96.415
  C     -166.599    -122.520     -95.934
  O     -166.921    -121.146     -96.082
  C     -167.224    -123.437     -96.979
  O     -167.184    -122.815     -98.275
  C     -166.275    -124.652     -96.942
  N     -166.802    -125.772     -96.166
  C     -167.790    -126.535     -96.780
  O     -168.213    -126.304     -97.912
  N     -168.292    -127.570     -96.036
  C     -167.959    -127.868     -94.747
  O     -168.472    -128.781     -94.112
  C     -166.934    -127.006     -94.140
  C     -166.411    -126.015     -94.865
  O     -162.506    -122.495     -92.451
  O     -163.667    -124.767     -91.906
  H     -161.875    -122.160     -93.113
  H     -167.379    -123.519     -98.925
  H     -168.994    -128.152     -96.468
  H     -166.651    -127.208     -93.115
  H     -165.662    -125.364     -94.430
  H     -166.072    -125.004     -97.961
  H     -168.270    -123.673     -96.760
  H     -166.886    -122.859     -94.931
  H     -164.764    -122.249     -97.055
  H     -163.165    -122.503     -95.280
  H     -164.388    -121.353     -94.698
  P     -167.324    -120.354     -94.740
  C     -169.803    -120.218     -95.553
  O     -168.896    -120.586     -94.539
  O     -167.207    -118.835     -95.230
  O     -166.468    -120.695     -93.564
  H     -167.574    -118.695     -96.118
  H     -170.740    -120.760     -95.400
  H     -169.415    -120.460     -96.546
  H     -170.004    -119.144     -95.493
  H     -161.454    -126.033     -94.955
  H     -163.177    -126.047     -94.670
  H     -162.071    -126.321     -93.346

 3  4  5  6  7  8  9  10  11  12  13  24  28  29  30  31  32 0
 6-311+G(2d,p)
 ****
 33  34 0
 6-311+G(2d,p)
 ****
 1  2  14  15  16  17  18  19  20  21  22  23  25  26  27 0
 3-21G
 ****
 35  36  37  38  39  40  41  42  43  44  45 0
 3-21G
 ****


