%nproc=1
%NoSave
%Mem=1900MB
#P OB98/GEN NMR

erre ene a

0 1
  C      -90.467     -65.325     368.863
  O      -90.925     -66.641     369.108
  P      -91.533     -67.527     367.919
  C      -93.998     -67.778     368.650
  O      -93.074     -67.088     367.804
  C      -95.433     -67.566     368.169
  O      -95.716     -66.160     368.023
  C      -95.734     -68.194     366.816
  O      -95.913     -69.589     366.938
  C      -96.987     -67.423     366.408
  O      -98.161     -67.987     367.015
  C      -96.702     -66.019     366.974
  N      -96.266     -65.081     365.944
  C      -96.805     -63.790     366.024
  O      -97.622     -63.513     366.906
  N      -96.441     -62.869     365.070
  C      -95.637     -63.207     364.120
  N      -95.326     -62.254     363.202
  C      -95.069     -64.566     363.982
  C      -95.424     -65.443     364.918
  O      -91.292     -68.995     368.029
  O      -90.881     -66.872     366.609
  H      -98.356     -68.806     366.514
  H      -89.926     -67.116     366.517
  H      -94.407     -64.805     363.161
  H      -95.053     -66.461     364.897
  H      -97.600     -65.606     367.452
  H      -97.149     -67.439     365.325
  H      -94.922     -67.965     366.111
  H      -96.108     -67.973     368.933
  H      -95.759     -61.347     363.317
  H      -93.894     -67.387     369.663
  H      -94.735     -62.420     362.398
  H      -93.743     -68.842     368.663
  P      -95.112     -70.588     365.977
  C      -97.083     -70.804     364.346
  O      -95.727     -70.441     364.501
  O      -94.976     -71.990     366.477
  O      -93.671     -69.896     365.840
  H      -92.981     -70.579     365.926
  H      -97.462     -70.357     363.418
  H      -97.682     -70.442     365.184
  H      -97.164     -71.888     364.276
  H      -90.100     -64.900     369.774
  H      -91.275     -64.730     368.491
  H      -89.680     -65.350     368.139

 3  4  5  6  7  8  9  10  11  12  13  23  27  28  29  30  32 0
 6-311+G(2d,p)
 ****
 34  35 0
 6-311+G(2d,p)
 ****
 1  2  14  15  16  17  18  19  20  21  22  24  25  26 0
 3-21G
 ****
 31  33  36  37  38  39  40  41  42  43  44  45  46 0
 3-21G
 ****


