%nproc=1
%NoSave
%Mem=1900MB
#P OB98/GEN NMR

erre ene a

0 1
  C      100.422     721.597     752.699
  O       99.234     721.329     753.450
  P       98.411     722.531     754.104
  C       96.191     722.740     755.402
  O       96.919     722.009     754.420
  C       95.138     721.846     756.038
  O       94.311     721.206     755.038
  C       95.701     720.699     756.872
  O       96.251     721.150     758.098
  C       94.465     719.803     757.007
  O       93.608     720.269     758.051
  C       93.799     719.988     755.640
  N       94.020     718.843     754.749
  C       93.351     717.668     755.106
  O       92.671     717.612     756.120
  N       93.455     716.588     754.242
  C       94.249     716.639     753.233
  N       94.271     715.556     752.384
  C       95.115     717.816     752.923
  C       94.933     718.871     753.700
  O       98.476     723.828     753.340
  O       99.031     722.702     755.563
  H       99.260     723.631     755.710
  H       93.439     721.218     757.871
  H       95.811     717.757     752.095
  H       95.488     719.780     753.559
  H       92.732     720.137     755.749
  H       94.750     718.760     757.256
  H       96.478     720.175     756.290
  H       94.478     722.495     756.660
  H       93.658     714.783     752.612
  H       95.711     723.590     754.908
  H       94.607     715.631     751.430
  H       96.891     723.113     756.152
  P       97.250     720.134     758.853
  C       99.343     720.402     760.376
  O       98.461     721.011     759.441
  O       97.929     719.310     757.657
  O       96.608     719.230     759.839
  H       98.072     718.393     757.928
  H      100.270     720.975     760.402
  H       99.571     719.372     760.112
  H       98.878     720.423     761.371
  H      100.833     720.676     752.341
  H      101.137     722.087     753.326
  H      100.184     722.228     751.868

 3  4  5  6  7  8  9  10  11  12  13  24  27  28  29  30  32 0
 6-311+G(2d,p)
 ****
 34  35 0
 6-311+G(2d,p)
 ****
 1  2  14  15  16  17  18  19  20  21  22  23  25  26 0
 3-21G
 ****
 31  33  36  37  38  39  40  41  42  43  44  45  46 0
 3-21G
 ****


