%nproc=1
%NoSave
%Mem=1900MB
#P OB98/GEN NMR

erre ene a

0 1
  C       81.358     -16.816     353.164
  O       81.653     -17.380     354.448
  P       82.389     -18.791     354.635
  C       84.876     -18.364     354.102
  O       83.898     -18.542     355.121
  C       86.297     -18.381     354.676
  O       86.675     -17.073     355.143
  C       86.495     -19.309     355.867
  O       86.563     -20.664     355.455
  C       87.785     -18.756     356.460
  O       88.936     -19.268     355.770
  C       87.622     -17.243     356.212
  N       87.217     -16.520     357.413
  C       88.245     -16.043     358.229
  O       89.421     -16.274     357.960
  N       87.906     -15.313     359.349
  C       86.659     -15.157     359.665
  N       86.382     -14.427     360.779
  C       85.547     -15.729     358.878
  C       85.898     -16.390     357.772
  O       82.269     -19.697     353.454
  O       81.693     -19.455     355.919
  H       89.718     -18.922     356.242
  H       81.702     -20.425     355.819
  H       84.523     -15.593     359.188
  H       85.143     -16.831     357.133
  H       88.568     -16.813     355.849
  H       87.903     -19.014     357.516
  H       85.673     -19.171     356.583
  H       86.982     -18.655     353.859
  H       87.166     -14.047     361.292
  H       84.695     -17.396     353.617
  H       85.447     -14.244     361.110
  H       84.757     -19.154     353.355
  P       85.666     -21.768     356.192
  C       85.359     -23.418     354.246
  O       85.972     -23.179     355.507
  O       84.219     -21.430     356.334
  O       86.361     -21.921     357.629
  H       85.678     -22.144     358.285
  H       85.933     -24.178     353.715
  H       85.333     -22.504     353.643
  H       84.346     -23.782     354.405
  H       80.867     -15.874     353.292
  H       80.719     -17.480     352.621
  H       82.268     -16.672     352.620

 3  4  5  6  7  8  9  10  11  12  13  23  27  28  29  30  32 0
 6-311+G(2d,p)
 ****
 34  35 0
 6-311+G(2d,p)
 ****
 1  2  14  15  16  17  18  19  20  21  22  24  25  26 0
 3-21G
 ****
 31  33  36  37  38  39  40  41  42  43  44  45  46 0
 3-21G
 ****


