%nproc=1
%NoSave
%Mem=1900MB
#P OB98/GEN NMR

erre ene a

0 1
  C     -464.893    -233.892    -457.310
  O     -464.135    -232.901    -457.965
  H     -464.746    -233.789    -456.232
  H     -464.557    -234.891    -457.609
  H     -465.959    -233.773    -457.531
  P     -464.132    -232.849    -459.572
  C     -462.107    -234.430    -459.669
  O     -463.467    -234.240    -460.044
  C     -461.498    -235.630    -460.397
  O     -461.178    -235.259    -461.764
  C     -460.207    -236.158    -459.742
  O     -460.271    -237.583    -459.634
  C     -459.119    -235.770    -460.738
  O     -457.962    -236.598    -460.646
  C     -459.899    -235.850    -462.059
  N     -459.200    -235.172    -463.144
  C     -458.388    -235.975    -463.955
  O     -458.292    -237.183    -463.734
  N     -457.656    -235.383    -464.951
  C     -457.703    -234.094    -465.102
  N     -456.931    -233.565    -466.092
  C     -458.523    -233.203    -464.255
  C     -459.247    -233.801    -463.302
  O     -463.510    -231.621    -460.156
  O     -465.667    -233.032    -459.995
  H     -457.232    -236.158    -461.132
  H     -465.794    -232.664    -460.896
  H     -458.518    -232.136    -464.416
  H     -459.880    -233.234    -462.632
  H     -460.064    -236.900    -462.350
  H     -458.812    -234.734    -460.549
  H     -460.021    -235.730    -458.762
  H     -462.259    -236.418    -460.464
  H     -456.374    -234.209    -466.648
  H     -462.059    -234.573    -458.584
  H     -456.869    -232.573    -466.283
  H     -461.548    -233.525    -459.939
  P     -460.716    -238.164    -458.198
  C     -458.289    -238.035    -457.281
  O     -459.644    -237.661    -457.110
  O     -460.423    -239.739    -458.332
  O     -462.146    -237.896    -457.867
  H     -461.268    -240.224    -458.368
  H     -457.703    -237.628    -456.484
  H     -457.930    -237.658    -458.216
  H     -458.210    -239.102    -457.273

 6  7  8  9  10  11  12  13  14  15  16  26  30  31  32  33  35 0
 6-311+G(2d,p)
 ****
 37  38 0
 6-311+G(2d,p)
 ****
 1  2  3  4  5  17  18  19  20  21  22  23  24  25 0
 3-21G
 ****
 27  28  29  34  36  39  40  41  42  43  44  45  46 0
 3-21G
 ****


