%nproc=1
%NoSave
%Mem=1900MB
#P OB98/GEN NMR

erre ene a

0 1
  C      -54.380       9.421     299.940
  O      -54.282       9.422     301.353
  P      -54.442      10.843     302.093
  C      -52.139      11.849     302.825
  O      -53.093      11.655     301.788
  C      -51.189      10.651     302.878
  O      -50.812      10.253     301.545
  C      -49.888      10.918     303.625
  O      -50.085      10.792     305.023
  C      -48.972       9.852     303.030
  O      -49.191       8.572     303.660
  C      -49.418       9.830     301.564
  N      -46.215       9.885     297.653
  C      -46.691       8.820     298.396
  N      -46.284       7.590     298.008
  N      -47.492       8.948     299.419
  C      -47.802      10.240     299.698
  C      -47.382      11.381     299.048
  C      -46.540      11.216     297.882
  O      -46.172      12.118     297.132
  N      -47.888      12.511     299.632
  C      -48.636      12.053     300.619
  N      -48.635      10.682     300.688
  O      -54.326      10.459     303.641
  O      -55.700      11.593     301.778
  H      -48.857       8.602     304.575
  H      -55.212      10.394     304.049
  H      -45.613       9.724     296.858
  H      -49.213      12.670     301.291
  H      -49.384       8.822     301.139
  H      -47.914      10.092     303.177
  H      -45.652       7.415     297.244
  H      -49.505      11.915     303.380
  H      -46.621       6.794     298.548
  H      -51.730       9.809     303.334
  H      -52.666      11.935     303.784
  H      -51.593      12.774     302.639
  P      -48.913      11.316     305.987
  C      -47.690       9.385     307.226
  O      -47.803      10.161     306.051
  O      -49.589      11.281     307.437
  O      -48.401      12.679     305.656
  H      -49.261      12.032     307.972
  H      -47.328       8.390     306.959
  H      -48.651       9.285     307.739
  H      -46.973       9.856     307.903
  H      -54.257       8.423     299.575
  H      -53.616      10.048     299.529
  H      -55.341       9.791     299.649

 3  4  5  6  7  8  9  10  11  12  23  26  30  31 0
 6-311+G(2d,p)
 ****
 33  35  36  37  38 0
 6-311+G(2d,p)
 ****
 1  2  13  14  15  16  17  18  19  20  21  22  24  25 0
 3-21G
 ****
 27  28  29  32  34  39  40  41  42  43  44  45  46  47  48  49 0
 3-21G
 ****


