%nproc=1
%NoSave
%Mem=1900MB
#P OB98/GEN NMR

erre ene a

0 1
  C     -128.887    -226.942     108.928
  O     -128.855    -226.645     110.307
  P     -127.510    -226.851     111.154
  C     -128.469    -228.151     113.157
  O     -127.696    -228.225     111.967
  C     -128.473    -229.502     113.867
  O     -129.226    -230.487     113.109
  C     -127.093    -230.124     114.023
  O     -126.175    -229.467     114.869
  C     -127.453    -231.560     114.375
  O     -127.781    -231.690     115.757
  C     -128.710    -231.786     113.495
  N     -128.420    -232.622     112.331
  C     -128.482    -233.995     112.540
  O     -128.759    -234.509     113.622
  N     -128.177    -234.776     111.458
  C     -127.781    -234.328     110.229
  O     -127.481    -235.085     109.316
  C     -127.721    -232.866     110.074
  C     -128.035    -232.091     111.115
  O     -127.104    -225.685     111.992
  O     -126.430    -227.258     110.040
  H     -128.062    -232.616     115.905
  H     -126.647    -228.068     109.542
  H     -128.203    -235.774     111.589
  H     -127.422    -232.479     109.109
  H     -127.995    -231.011     111.027
  H     -129.500    -232.277     114.081
  H     -126.624    -232.249     114.171
  H     -126.616    -230.148     113.033
  H     -128.974    -229.385     114.830
  H     -129.499    -227.881     112.897
  H     -128.070    -227.362     113.805
  P     -124.629    -229.870     114.975
  C     -124.481    -230.364     117.516
  O     -124.455    -230.884     116.202
  O     -123.637    -228.762     114.850
  O     -124.469    -230.855     113.712
  H     -123.557    -230.781     113.368
  H     -124.305    -231.181     118.219
  H     -125.460    -229.923     117.731
  H     -123.698    -229.614     117.649
  H     -129.865    -226.741     108.542
  H     -128.651    -227.975     108.780
  H     -128.170    -226.335     108.416

 3  4  5  6  7  8  9  10  11  12  13  23  28  29  30  31  32 0
 6-311+G(2d,p)
 ****
 33  34 0
 6-311+G(2d,p)
 ****
 1  2  14  15  16  17  18  19  20  21  22  24  25  26  27 0
 3-21G
 ****
 35  36  37  38  39  40  41  42  43  44  45 0
 3-21G
 ****


