%nproc=1
%NoSave
%Mem=1900MB
#P OB98/GEN NMR

erre ene a

0 1
  C      915.008     127.992    -814.524
  O      914.472     127.824    -813.231
  H      916.084     127.776    -814.490
  H      914.865     129.022    -814.853
  H      914.537     127.302    -815.232
  P      912.871     127.882    -813.099
  C      911.284     129.775    -813.908
  O      912.466     129.433    -813.196
  C      911.245     131.273    -814.178
  O      912.368     131.665    -814.997
  C      909.993     131.747    -814.915
  O      908.898     131.934    -814.026
  C      910.482     133.074    -815.476
  O      910.498     134.065    -814.430
  C      911.926     132.723    -815.888
  N      912.748     134.150    -820.691
  C      912.676     134.912    -819.539
  N      912.844     136.240    -819.681
  N      912.464     134.410    -818.348
  C      912.303     133.070    -818.356
  C      912.351     132.202    -819.428
  C      912.603     132.770    -820.733
  O      912.697     132.137    -821.784
  N      912.158     130.910    -819.040
  C      911.969     130.981    -817.737
  N      912.043     132.269    -817.272
  O      912.611     127.527    -811.560
  O      912.117     126.965    -814.008
  H      909.648     133.975    -813.945
  H      911.784     127.003    -811.492
  H      912.900     134.583    -821.584
  H      911.780     130.133    -817.083
  H      912.606     133.569    -815.774
  H      909.854     133.452    -816.276
  H      912.964     136.698    -820.576
  H      909.739     131.074    -815.742
  H      912.831     136.812    -818.846
  H      911.345     131.796    -813.216
  H      910.407     129.487    -813.314
  H      911.272     129.220    -814.849
  P      907.428     131.993    -814.667
  C      906.538     133.636    -816.481
  O      907.280     133.474    -815.269
  O      906.478     132.034    -813.374
  O      907.094     130.873    -815.589
  H      905.588     131.709    -813.605
  H      906.526     134.670    -816.757
  H      905.535     133.295    -816.333
  H      906.998     133.064    -817.260

 6  7  8  9  10  11  12  13  14  15  26  29  33  34 0
 6-311+G(2d,p)
 ****
 36  38  39  40  41 0
 6-311+G(2d,p)
 ****
 1  2  3  4  5  16  17  18  19  20  21  22  23  24  25 0
 3-21G
 ****
 27  28  30  31  32  35  37  42  43  44  45  46  47 0
 3-21G
 ****
 48  49 0
 3-21G
 ****


