%nproc=1
%NoSave
%Mem=1900MB
#P OB98/GEN NMR

erre ene a

0 1
  C     -299.673    -549.208    -132.185
  O     -299.769    -550.018    -131.033
  H     -299.024    -549.702    -132.915
  H     -299.241    -548.232    -131.938
  H     -300.665    -549.073    -132.634
  P     -300.530    -549.450    -129.744
  C     -298.866    -550.508    -128.091
  O     -300.215    -550.464    -128.541
  C     -298.700    -551.547    -126.976
  O     -299.333    -551.037    -125.771
  C     -299.334    -552.906    -127.302
  O     -298.495    -553.934    -126.770
  C     -300.647    -552.848    -126.557
  O     -301.151    -554.144    -126.278
  C     -300.295    -552.011    -125.323
  N     -301.476    -551.386    -124.744
  C     -302.272    -552.195    -123.917
  O     -301.948    -553.372    -123.711
  N     -303.441    -551.695    -123.417
  C     -303.823    -550.498    -123.748
  N     -305.010    -550.064    -123.239
  C     -303.031    -549.614    -124.627
  C     -301.887    -550.114    -125.080
  O     -301.978    -549.130    -129.928
  O     -299.685    -548.142    -129.353
  H     -300.508    -554.618    -125.695
  H     -300.055    -547.356    -129.802
  H     -303.397    -548.625    -124.881
  H     -301.242    -549.546    -125.751
  H     -299.809    -552.633    -124.560
  H     -301.399    -552.326    -127.166
  H     -299.473    -553.062    -128.382
  H     -297.634    -551.654    -126.754
  H     -305.535    -550.723    -122.658
  H     -298.607    -549.508    -127.706
  H     -305.431    -549.177    -123.458
  H     -298.203    -550.745    -128.925
  P     -297.738    -554.964    -127.749
  C     -299.065    -556.829    -126.621
  O     -297.789    -556.436    -127.101
  O     -296.375    -554.521    -128.183
  O     -298.725    -555.079    -129.011
  H     -298.195    -555.263    -129.812
  H     -299.003    -557.815    -126.210
  H     -299.767    -556.822    -127.428
  H     -299.387    -556.146    -125.863

 6  7  8  9  10  11  12  13  14  15  16  26  30  31  32  33  35 0
 6-311+G(2d,p)
 ****
 37  38 0
 6-311+G(2d,p)
 ****
 1  2  3  4  5  17  18  19  20  21  22  23  24  25 0
 3-21G
 ****
 27  28  29  34  36  39  40  41  42  43  44  45  46 0
 3-21G
 ****


