%nproc=1
%NoSave
%Mem=1900MB
#P OB98/GEN NMR

erre ene a

0 1
  C       71.359      -4.196     197.817
  O       71.722      -5.489     197.321
  P       72.316      -5.566     195.828
  C       71.196      -5.668     193.465
  O       71.057      -5.844     194.867
  C       69.843      -5.827     192.759
  O       69.448      -7.233     192.766
  C       68.699      -5.016     193.387
  O       67.876      -4.554     192.304
  C       67.955      -6.050     194.209
  O       66.612      -5.660     194.471
  C       68.108      -7.286     193.315
  N       67.874      -8.541     194.033
  C       66.580      -9.054     193.989
  O       65.642      -8.467     193.452
  N       66.396     -10.252     194.631
  C       67.335     -10.925     195.359
  O       67.114     -11.998     195.912
  C       68.652     -10.272     195.460
  C       68.851      -9.129     194.804
  O       73.102      -6.957     195.869
  O       73.150      -4.378     195.472
  H       72.652      -7.640     196.400
  H       66.617      -4.903     195.089
  H       65.470     -10.662     194.585
  H       69.405     -10.751     196.078
  H       69.799      -8.611     194.879
  H       67.408      -7.236     192.470
  H       68.467      -6.202     195.169
  H       69.056      -4.160     193.972
  H       69.972      -5.537     191.705
  H       71.892      -6.412     193.064
  H       71.635      -4.682     193.266
  P       67.015      -3.212     192.526
  C       64.767      -2.711     193.783
  O       65.594      -3.650     193.126
  O       66.660      -2.849     190.997
  O       67.733      -2.102     193.226
  H       66.338      -3.615     190.492
  H       63.768      -3.145     193.899
  H       64.679      -1.793     193.200
  H       65.175      -2.487     194.772
  H       70.981      -4.289     198.814
  H       70.604      -3.772     197.188
  H       72.220      -3.561     197.820

 3  4  5  6  7  8  9  10  11  12  13  24  28  29  30  31  32 0
 6-311+G(2d,p)
 ****
 33  34 0
 6-311+G(2d,p)
 ****
 1  2  14  15  16  17  18  19  20  21  22  23  25  26  27 0
 3-21G
 ****
 35  36  37  38  39  40  41  42  43  44  45 0
 3-21G
 ****


