%nproc=1
%NoSave
%Mem=1900MB
#P OB98/GEN NMR

erre ene a

0 1
  C     -522.350    -489.365    -683.307
  O     -522.559    -488.555    -682.169
  H     -521.320    -489.235    -683.647
  H     -523.031    -489.071    -684.114
  H     -522.510    -490.418    -683.054
  P     -524.055    -488.522    -681.580
  C     -526.279    -487.566    -682.547
  O     -524.918    -487.892    -682.779
  C     -526.652    -486.288    -683.301
  O     -526.358    -486.431    -684.713
  C     -528.122    -485.917    -683.232
  O     -528.504    -485.319    -682.003
  C     -528.198    -484.938    -684.387
  O     -527.597    -483.687    -683.999
  C     -527.340    -485.659    -685.451
  N     -528.134    -486.536    -686.319
  C     -528.252    -486.152    -687.665
  O     -527.717    -485.126    -688.064
  N     -529.003    -486.926    -688.513
  C     -529.573    -488.011    -688.067
  N     -530.304    -488.727    -688.949
  C     -529.469    -488.457    -686.667
  C     -528.736    -487.688    -685.865
  O     -524.003    -487.325    -680.513
  O     -524.578    -489.812    -681.037
  H     -526.715    -483.907    -683.644
  H     -524.917    -487.124    -680.196
  H     -529.965    -489.361    -686.343
  H     -528.614    -487.961    -684.816
  H     -526.799    -484.944    -686.072
  H     -529.224    -484.715    -684.702
  H     -528.768    -486.781    -683.460
  H     -526.020    -485.472    -682.912
  H     -530.415    -488.364    -689.888
  H     -526.420    -487.411    -681.473
  H     -530.908    -489.500    -688.667
  H     -526.923    -488.381    -682.881
  P     -529.961    -485.678    -681.429
  C     -532.334    -485.686    -682.477
  O     -531.025    -485.135    -682.494
  O     -530.116    -484.661    -680.198
  O     -530.137    -487.103    -681.009
  H     -530.630    -485.079    -679.469
  H     -532.925    -485.226    -683.241
  H     -532.784    -485.508    -681.523
  H     -532.280    -486.740    -682.654

 6  7  8  9  10  11  12  13  14  15  16  26  30  31  32  33  35 0
 6-311+G(2d,p)
 ****
 37  38 0
 6-311+G(2d,p)
 ****
 1  2  3  4  5  17  18  19  20  21  22  23  24  25 0
 3-21G
 ****
 27  28  29  34  36  39  40  41  42  43  44  45  46 0
 3-21G
 ****


