%nproc=1
%NoSave
%Mem=1900MB
#P OB98/GEN NMR

erre ene a

0 1
  C     -240.574     -33.790     -14.685
  O     -240.900     -33.157     -13.460
  P     -241.115     -31.563     -13.499
  C     -238.877     -30.829     -12.368
  O     -239.652     -30.915     -13.555
  C     -238.177     -29.471     -12.308
  O     -237.274     -29.322     -13.420
  C     -239.121     -28.277     -12.361
  O     -239.672     -28.024     -11.083
  C     -238.192     -27.177     -12.863
  O     -237.404     -26.638     -11.783
  C     -237.309     -27.937     -13.864
  N     -235.877     -27.261     -18.664
  C     -235.161     -27.099     -17.492
  N     -233.864     -26.751     -17.625
  N     -235.671     -27.269     -16.300
  C     -236.982     -27.603     -16.321
  C     -237.800     -27.777     -17.414
  C     -237.211     -27.638     -18.725
  O     -237.774     -27.864     -19.792
  N     -239.080     -28.091     -17.037
  C     -239.026     -28.138     -15.722
  N     -237.771     -27.871     -15.237
  O     -241.635     -31.232     -12.025
  O     -242.046     -31.073     -14.563
  H     -238.001     -26.284     -11.101
  H     -242.608     -31.148     -12.011
  H     -235.426     -27.134     -19.552
  H     -239.859     -28.380     -15.080
  H     -236.274     -27.572     -13.860
  H     -238.743     -26.339     -13.297
  H     -233.410     -26.579     -18.507
  H     -239.915     -28.452     -13.098
  H     -233.323     -26.624     -16.774
  H     -237.578     -29.445     -11.387
  H     -238.126     -31.624     -12.372
  H     -239.532     -30.966     -11.502
  P     -241.147     -27.393     -11.027
  C     -240.379     -25.093     -11.960
  O     -241.210     -26.229     -12.123
  O     -241.157     -26.607      -9.631
  O     -242.252     -28.397     -11.091
  H     -242.042     -26.673      -9.225
  H     -240.132     -24.698     -12.946
  H     -239.453     -25.345     -11.434
  H     -240.921     -24.333     -11.394
  H     -240.459     -34.841     -14.523
  H     -239.659     -33.385     -15.063
  H     -241.358     -33.622     -15.393

 3  4  5  6  7  8  9  10  11  12  23  26  30  31 0
 6-311+G(2d,p)
 ****
 33  35  36  37  38 0
 6-311+G(2d,p)
 ****
 1  2  13  14  15  16  17  18  19  20  21  22  24  25 0
 3-21G
 ****
 27  28  29  32  34  39  40  41  42  43  44  45  46  47  48  49 0
 3-21G
 ****


