%nproc=1
%NoSave
%Mem=1900MB
#P OB98/GEN NMR

erre ene a

0 1
  C     -457.077     -89.876    -770.398
  O     -455.701     -90.021    -770.696
  H     -457.456     -90.830    -770.023
  H     -457.627     -89.608    -771.304
  H     -457.217     -89.109    -769.634
  P     -454.938     -88.717    -771.255
  C     -453.252     -90.104    -772.675
  O     -454.294     -89.129    -772.661
  C     -453.250     -90.834    -774.015
  O     -454.547     -91.447    -774.240
  C     -453.015     -89.924    -775.215
  O     -451.649     -89.586    -775.379
  C     -453.563     -90.782    -776.343
  O     -452.605     -91.732    -776.803
  C     -454.747     -91.504    -775.675
  N     -457.902     -90.355    -779.525
  C     -456.745     -91.050    -779.485
  N     -455.973     -91.318    -778.408
  C     -456.519     -90.828    -777.292
  C     -457.700     -90.105    -777.177
  C     -458.423     -89.869    -778.360
  N     -459.586     -89.158    -778.411
  N     -457.910     -89.730    -775.870
  C     -456.893     -90.219    -775.202
  N     -456.028     -90.898    -776.015
  O     -453.669     -88.603    -770.273
  O     -455.752     -87.468    -771.259
  H     -451.818     -91.222    -777.080
  H     -453.850     -87.928    -769.593
  H     -456.381     -91.411    -780.434
  H     -456.727     -90.117    -774.121
  H     -454.796     -92.562    -775.953
  H     -453.859     -90.160    -777.194
  H     -453.633     -89.016    -775.120
  H     -452.494     -91.637    -773.981
  H     -453.420     -90.828    -771.870
  H     -452.292     -89.602    -772.501
  H     -460.006     -88.967    -779.313
  H     -459.904     -88.689    -777.574
  P     -451.247     -88.740    -776.683
  C     -448.705     -89.102    -776.201
  O     -449.776     -89.218    -777.125
  O     -451.014     -87.253    -776.121
  O     -452.259     -88.772    -777.775
  H     -451.301     -86.597    -776.789
  H     -447.804     -89.462    -776.652
  H     -448.923     -89.681    -775.328
  H     -448.581     -88.075    -775.926

 6  7  8  9  10  11  12  13  14  15  25  28  32  33  34  35 0
 6-311+G(2d,p)
 ****
 36  37  40 0
 6-311+G(2d,p)
 ****
 1  2  3  4  5  16  17  18  19  20  21  22  23  24 0
 3-21G
 ****
 26  27  29  30  31  38  39 41  42  43  44  45  46  47  48 0
 3-21G
 ****


