%nproc=1
%NoSave
%Mem=1900MB
#P OB98/GEN NMR

erre ene a

0 1
  C     -187.082    -805.639     333.188
  O     -187.662    -806.878     332.839
  H     -187.116    -805.532     334.277
  H     -187.650    -804.817     332.739
  H     -186.038    -805.588     332.866
  P     -187.573    -807.368     331.316
  C     -185.730    -809.122     331.750
  O     -187.072    -808.892     331.348
  C     -185.536    -810.583     332.179
  O     -186.242    -810.792     333.442
  C     -186.088    -811.617     331.177
  O     -185.278    -812.797     331.303
  C     -187.480    -811.844     331.738
  O     -188.122    -812.954     331.161
  C     -187.144    -811.903     333.232
  N     -188.286    -811.813     334.135
  C     -188.756    -812.994     334.701
  O     -188.272    -814.110     334.500
  N     -189.833    -812.864     335.535
  C     -190.466    -811.700     335.864
  O     -191.409    -811.641     336.642
  C     -189.930    -810.486     335.224
  C     -188.881    -810.597     334.409
  O     -186.821    -806.477     330.388
  O     -189.110    -807.515     330.880
  H     -189.371    -806.743     330.339
  H     -187.592    -813.762     331.342
  H     -190.188    -813.711     335.963
  H     -190.413    -809.548     335.455
  H     -188.456    -809.718     333.934
  H     -186.584    -812.816     333.455
  H     -188.114    -810.985     331.512
  H     -186.066    -811.265     330.143
  H     -184.473    -810.754     332.381
  H     -185.502    -808.460     332.588
  H     -185.061    -808.888     330.917
  P     -184.588    -813.532     330.051
  C     -182.815    -811.690     329.647
  O     -183.057    -813.060     329.973
  O     -185.334    -813.371     328.766
  O     -184.496    -815.076     330.473
  H     -184.484    -815.630     329.672
  H     -181.761    -811.509     329.628
  H     -183.272    -811.062     330.383
  H     -183.231    -811.473     328.686

 6  7  8  9  10  11  12  13  14  15  16  27  31  32  33  34  35 0
 6-311+G(2d,p)
 ****
 36  37 0
 6-311+G(2d,p)
 ****
 1  2  3  4  5  17  18  19  20  21  22  23  24  25 0
 3-21G
 ****
 26  28  29  30  38  39  40  41  42  43  44  45 0
 3-21G
 ****


