%nproc=1
%NoSave
%Mem=1900MB
#P OB98/GEN NMR

erre ene a

0 1
  C      142.285    -350.898      96.051
  O      141.359    -351.885      95.655
  H      142.887    -351.293      96.875
  H      141.748    -350.014      96.401
  H      142.953    -350.620      95.231
  P      140.680    -351.768      94.211
  C      138.976    -353.448      95.189
  O      139.181    -352.342      94.318
  C      137.542    -353.494      95.716
  O      137.296    -352.337      96.546
  C      136.501    -353.461      94.594
  O      136.172    -354.737      94.061
  C      135.299    -352.834      95.298
  O      134.486    -353.833      95.937
  C      135.939    -351.912      96.346
  N      133.072    -347.816      95.265
  C      132.676    -349.133      95.434
  N      131.363    -349.382      95.253
  N      133.505    -350.100      95.731
  C      134.800    -349.714      95.779
  C      135.312    -348.445      95.610
  C      134.380    -347.363      95.356
  O      134.677    -346.182      95.218
  N      136.688    -348.441      95.691
  C      137.002    -349.715      95.823
  N      135.890    -350.516      95.959
  O      141.422    -352.904      93.355
  O      140.811    -350.433      93.543
  H      134.267    -354.518      95.273
  H      141.474    -352.628      92.422
  H      132.388    -347.111      95.067
  H      138.011    -350.105      95.864
  H      135.426    -351.995      97.313
  H      134.653    -352.317      94.580
  H      130.697    -348.692      94.941
  H      136.818    -352.785      93.794
  H      131.064    -350.360      95.182
  H      137.419    -354.376      96.355
  H      139.678    -353.323      96.015
  H      139.227    -354.382      94.685
  P      136.201    -354.997      92.486
  C      134.386    -356.879      92.715
  O      134.833    -355.709      92.067
  O      137.287    -356.158      92.327
  O      136.531    -353.806      91.641
  H      138.149    -355.791      92.065
  H      133.457    -357.191      92.287
  H      134.249    -356.679      93.757
  H      135.113    -357.654      92.593

 6  7  8  9  10  11  12  13  14  15  26  29  33  34 0
 6-311+G(2d,p)
 ****
 36  38  39  40  41 0
 6-311+G(2d,p)
 ****
 1  2  3  4  5  16  17  18  19  20  21  22  23  24  25 0
 3-21G
 ****
 27  28  30  31  32  35  37  42  43  44  45  46  47 0
 3-21G
 ****
 48  49 0
 3-21G
 ****


