%nproc=1
%NoSave
%Mem=1900MB
#P OB98/GEN NMR

erre ene a

0 1
  C      307.073     274.483     158.095
  O      307.253     273.530     157.061
  H      307.474     275.448     157.773
  H      306.005     274.592     158.286
  H      307.567     274.160     159.010
  P      308.741     272.984     156.811
  C      308.416     270.525     157.586
  O      308.607     271.414     156.490
  C      307.955     269.162     157.095
  O      306.587     269.283     156.590
  C      308.811     268.567     155.965
  O      308.932     267.154     156.171
  C      307.976     268.812     154.713
  O      308.262     267.893     153.671
  C      306.559     268.688     155.280
  N      301.692     268.646     153.770
  C      302.320     268.067     154.816
  N      303.614     268.181     155.177
  C      304.265     269.035     154.368
  C      303.758     269.698     153.263
  C      302.410     269.473     152.958
  N      301.778     270.008     151.861
  N      304.758     270.448     152.663
  C      305.852     270.214     153.367
  N      305.601     269.361     154.413
  O      309.367     273.012     158.293
  O      309.562     273.767     155.844
  H      307.854     268.224     152.846
  H      309.755     273.891     158.471
  H      301.704     267.429     155.442
  H      306.832     270.598     153.155
  H      306.240     267.642     155.374
  H      308.156     269.830     154.341
  H      309.812     269.009     155.886
  H      307.909     268.471     157.950
  H      307.652     270.948     158.254
  H      300.837     269.698     151.666
  H      302.327     270.534     151.194
  H      309.355     270.432     158.139
  P      310.111     266.383     155.401
  C      311.531     265.618     157.449
  O      310.682     265.238     156.365
  O      311.293     267.461     155.369
  O      309.744     265.932     154.024
  H      311.824     267.361     154.561
  H      311.826     264.746     157.994
  H      311.003     266.283     158.100
  H      312.400     266.110     157.066

 6  7  8  9  10  11  12  13  14  15  25  28  32  33  34  35 0
 6-311+G(2d,p)
 ****
 36  39  40 0
 6-311+G(2d,p)
 ****
 1  2  3  4  5  16  17  18  19  20  21  22  23  24 0
 3-21G
 ****
 26  27  29  30  31  37  38  41  42  43  44  45  46  47 0
 3-21G
 ****
 48 0
 3-21G
 ****


