%nproc=1
%NoSave
%Mem=1900MB
#P OB98/GEN NMR

erre ene a

0 1
  C      -78.187      53.596     427.873
  O      -76.791      53.802     427.941
  H      -78.690      54.564     427.930
  H      -78.519      52.979     428.714
  H      -78.458      53.110     426.930
  P      -75.859      52.507     427.786
  C      -74.133      53.813     429.216
  O      -74.355      52.988     428.077
  C      -72.699      54.343     429.226
  O      -71.801      53.286     428.786
  C      -72.465      55.553     428.300
  O      -71.503      56.409     428.932
  C      -71.814      54.925     427.084
  O      -71.068      55.863     426.314
  C      -70.968      53.842     427.756
  N      -68.029      53.032     423.745
  C      -68.216      54.170     424.509
  N      -67.509      55.264     424.148
  N      -69.021      54.227     425.538
  C      -69.630      53.053     425.803
  C      -69.544      51.860     425.127
  C      -68.670      51.817     423.975
  O      -68.479      50.846     423.250
  N      -70.355      50.901     425.695
  C      -70.929      51.525     426.714
  N      -70.524      52.825     426.817
  O      -75.873      52.251     426.201
  O      -76.303      51.298     428.547
  H      -71.703      56.522     425.937
  H      -76.572      51.614     425.970
  H      -67.411      53.049     422.962
  H      -71.645      51.074     427.388
  H      -70.066      54.249     428.226
  H      -72.574      54.476     426.431
  H      -66.833      55.280     423.395
  H      -73.367      56.121     428.065
  H      -67.594      56.096     424.720
  H      -72.428      54.586     430.262
  H      -74.304      53.215     430.119
  H      -74.843      54.645     429.198
  P      -72.023      57.800     429.541
  C      -70.327      59.698     428.949
  O      -70.732      58.703     429.885
  O      -72.551      57.380     430.995
  O      -73.083      58.470     428.736
  H      -73.256      57.990     431.277
  H      -69.462      60.207     429.321
  H      -71.122      60.401     428.809
  H      -70.093      59.234     428.014

 6  7  8  9  10  11  12  13  14  15  26  29  33  34 0
 6-311+G(2d,p)
 ****
 36  38  39  40  41 0
 6-311+G(2d,p)
 ****
 1  2  3  4  5  16  17  18  19  20  21  22  23  24  25 0
 3-21G
 ****
 27  28  30  31  32  35  37  42  43  44  45  46  47 0
 3-21G
 ****
 48  49 0
 3-21G
 ****


