%nproc=1
%NoSave
%Mem=1900MB
#P OB98/GEN NMR

erre ene a

0 1
  C      -61.512      50.755     -44.523
  O      -60.436      50.814     -43.592
  P      -60.806      50.933     -42.037
  C      -61.535      53.419     -41.629
  O      -61.915      52.080     -41.885
  C      -62.453      54.061     -40.573
  O      -62.224      53.398     -39.303
  C      -62.204      55.542     -40.307
  O      -63.354      56.090     -39.659
  C      -61.052      55.490     -39.329
  O      -60.907      56.718     -38.620
  C      -61.403      54.256     -38.468
  N      -60.218      53.513     -37.987
  C      -59.373      54.135     -37.071
  O      -59.550      55.271     -36.636
  N      -58.272      53.420     -36.686
  C      -57.959      52.156     -37.084
  O      -56.915      51.595     -36.777
  C      -58.953      51.495     -37.938
  C      -60.012      52.193     -38.352
  O      -59.492      51.566     -41.385
  O      -61.176      49.632     -41.408
  H      -60.277      56.544     -37.884
  H      -58.999      50.885     -40.891
  H      -57.616      53.884     -36.076
  H      -58.773      50.466     -38.221
  H      -60.748      51.725     -39.001
  H      -61.986      54.544     -37.584
  H      -60.117      55.315     -39.869
  H      -61.961      56.129     -41.196
  H      -63.498      53.888     -40.852
  H      -61.561      53.996     -42.556
  H      -60.499      53.445     -41.273
  P      -64.432      56.859     -40.563
  C      -63.784      59.339     -40.392
  O      -63.687      58.151     -41.152
  O      -65.759      57.110     -39.930
  O      -64.558      55.912     -41.852
  H      -65.386      56.111     -42.325
  H      -62.889      59.942     -40.566
  H      -63.868      59.126     -39.323
  H      -64.661      59.903     -40.718
  H      -61.121      50.678     -45.516
  H      -62.104      51.643     -44.441
  H      -62.120      49.900     -44.312

 3  4  5  6  7  8  9  10  11  12  13  23  28  29  30  31  32 0
 6-311+G(2d,p)
 ****
 33  34 0
 6-311+G(2d,p)
 ****
 1  2  14  15  16  17  18  19  20  21  22  24  25  26  27 0
 3-21G
 ****
 35  36  37  38  39  40  41  42  43  44  45 0
 3-21G
 ****


