%nproc=1
%NoSave
%Mem=1900MB
#P OB98/GEN NMR

erre ene a

0 1
  C       99.515      91.257      -2.286
  O      100.356      91.717      -1.248
  H       98.475      91.357      -1.966
  H       99.722      90.202      -2.485
  H       99.662      91.845      -3.196
  P      101.896      91.970      -1.622
  C      102.582      89.971      -0.114
  O      102.764      91.344      -0.424
  C      103.596      89.527       0.935
  O      104.898      89.354       0.335
  C      103.781      90.509       2.086
  O      102.783      90.340       3.084
  C      105.145      90.085       2.602
  O      105.016      88.877       3.383
  C      105.900      89.785       1.299
  N      109.920      91.219      -1.438
  C      109.532      89.959      -1.028
  N      110.334      88.936      -1.392
  N      108.459      89.721      -0.320
  C      107.765      90.841      -0.008
  C      108.051      92.144      -0.351
  C      109.231      92.390      -1.146
  O      109.613      93.487      -1.545
  N      107.117      93.013       0.147
  C      106.279      92.240       0.809
  N      106.630      90.914       0.748
  O      102.053      93.552      -1.420
  O      102.293      91.556      -2.998
  H      104.423      89.082       4.129
  H      102.044      93.983      -2.296
  H      110.761      91.348      -1.973
  H      105.404      92.587       1.340
  H      106.619      88.967       1.414
  H      105.602      90.834       3.252
  H      111.187      89.051      -1.917
  H      103.828      91.546       1.732
  H      110.067      88.003      -1.105
  H      103.279      88.545       1.312
  H      102.716      89.380      -1.026
  H      101.565      89.823       0.263
  P      102.113      91.652       3.718
  C      103.464      91.623       5.931
  O      102.191      91.491       5.315
  O      100.560      91.443       3.396
  O      102.612      92.946       3.176
  H      100.266      92.101       2.737
  H      103.364      91.493       6.988
  H      103.860      92.596       5.727
  H      104.128      90.880       5.541

 6  7  8  9  10  11  12  13  14  15  26  29  33  34 0
 6-311+G(2d,p)
 ****
 36  38  39  40  41 0
 6-311+G(2d,p)
 ****
 1  2  3  4  5  16  17  18  19  20  21  22  23  24  25 0
 3-21G
 ****
 27  28  30  31  32  35  37  42  43  44  45  46  47 0
 3-21G
 ****
 48  49 0
 3-21G
 ****


