%nproc=1
%NoSave
%Mem=1900MB
#P OB98/GEN NMR

erre ene a

0 1
  C     -558.838    -877.133     119.309
  O     -558.558    -875.796     118.897
  P     -557.763    -875.479     117.536
  C     -556.863    -873.611     119.048
  O     -557.172    -874.027     117.728
  C     -555.919    -872.408     119.018
  O     -554.780    -872.720     118.200
  C     -556.529    -871.136     118.456
  O     -557.392    -870.518     119.391
  C     -555.267    -870.355     118.106
  O     -554.711    -869.732     119.258
  C     -554.305    -871.462     117.607
  N     -554.254    -871.577     116.169
  C     -554.077    -870.392     115.458
  O     -553.952    -869.299     116.052
  N     -553.989    -870.424     114.086
  C     -554.118    -871.539     113.460
  N     -553.978    -871.549     112.103
  C     -554.362    -872.836     114.166
  C     -554.423    -872.776     115.486
  O     -558.570    -875.685     116.290
  O     -556.466    -876.405     117.623
  H     -555.354    -869.090     119.589
  H     -556.609    -877.313     117.254
  H     -554.470    -873.753     113.580
  H     -554.559    -873.670     116.073
  H     -553.297    -871.298     117.994
  H     -555.442    -869.572     117.346
  H     -557.086    -871.367     117.533
  H     -555.544    -872.241     120.061
  H     -553.629    -870.680     111.706
  H     -556.369    -874.453     119.567
  H     -553.745    -872.398     111.602
  H     -557.782    -873.371     119.578
  P     -558.933    -870.367     118.972
  C     -558.698    -867.931     119.828
  O     -559.493    -869.102     119.800
  O     -559.629    -871.638     119.692
  O     -559.187    -870.348     117.493
  H     -559.785    -872.350     119.032
  H     -559.304    -867.114     120.202
  H     -558.345    -867.674     118.812
  H     -557.834    -868.089     120.492
  H     -559.372    -877.116     120.236
  H     -557.919    -877.667     119.436
  H     -559.432    -877.619     118.564

 3  4  5  6  7  8  9  10  11  12  13  23  27  28  29  30  32 0
 6-311+G(2d,p)
 ****
 34  35 0
 6-311+G(2d,p)
 ****
 1  2  14  15  16  17  18  19  20  21  22  24  25  26 0
 3-21G
 ****
 31  33  36  37  38  39  40  41  42  43  44  45  46 0
 3-21G
 ****


