%nproc=1
%NoSave
%Mem=1900MB
#P OB98/GEN NMR

erre ene a

0 1
  C      722.948     743.946     173.187
  O      722.857     743.362     174.476
  H      722.917     745.029     173.294
  H      722.098     743.634     172.570
  H      723.881     743.657     172.714
  P      722.768     741.760     174.526
  C      722.080     741.999     177.044
  O      721.758     741.477     175.759
  C      720.845     741.986     177.940
  O      719.867     742.940     177.460
  C      720.109     740.653     177.985
  O      720.743     739.686     178.803
  C      718.771     741.107     178.556
  O      718.916     741.368     179.963
  C      718.548     742.415     177.754
  N      717.791     742.212     176.519
  C      716.397     742.374     176.596
  O      715.864     742.663     177.660
  N      715.639     742.147     175.470
  C      716.219     741.820     174.343
  N      715.421     741.608     173.267
  C      717.682     741.647     174.212
  C      718.391     741.854     175.333
  O      724.184     741.321     175.130
  O      722.393     741.085     173.256
  H      719.591     742.072     180.053
  H      724.179     740.353     175.345
  H      718.120     741.351     173.268
  H      719.481     741.751     175.310
  H      718.015     743.158     178.360
  H      717.979     740.366     178.443
  H      719.944     740.255     176.969
  H      721.161     742.302     178.945
  H      714.411     741.672     173.405
  H      722.445     743.015     176.916
  H      715.757     741.214     172.395
  H      722.869     741.389     177.496
  P      720.853     738.191     178.234
  C      721.358     737.082     180.554
  O      720.471     737.201     179.448
  O      722.450     737.974     178.088
  O      720.142     737.936     176.939
  H      722.660     737.407     177.317
  H      720.954     736.389     181.262
  H      721.479     738.038     181.019
  H      722.309     736.729     180.212

 6  7  8  9  10  11  12  13  14  15  16  26  30  31  32  33  35 0
 6-311+G(2d,p)
 ****
 37  38 0
 6-311+G(2d,p)
 ****
 1  2  3  4  5  17  18  19  20  21  22  23  24  25 0
 3-21G
 ****
 27  28  29  34  36  39  40  41  42  43  44  45  46 0
 3-21G
 ****


