%nproc=1
%NoSave
%Mem=1900MB
#P OB98/GEN NMR

erre ene a

0 1
  C     -117.733      -7.343     -63.309
  O     -119.029      -7.075     -62.763
  P     -119.214      -6.414     -61.312
  C     -121.271      -4.892     -61.532
  O     -120.769      -6.122     -61.019
  C     -121.595      -4.949     -63.030
  O     -122.423      -6.104     -63.340
  C     -122.334      -3.720     -63.580
  O     -121.910      -3.579     -64.940
  C     -123.785      -4.165     -63.518
  O     -124.649      -3.402     -64.347
  C     -123.648      -5.626     -63.935
  N     -128.692      -6.382     -64.400
  C     -127.830      -5.614     -65.102
  N     -126.496      -5.494     -64.943
  C     -126.054      -6.304     -63.964
  C     -126.812      -7.149     -63.170
  C     -128.198      -7.162     -63.410
  N     -129.087      -7.906     -62.666
  N     -126.014      -7.801     -62.249
  C     -124.798      -7.346     -62.482
  N     -124.770      -6.441     -63.512
  O     -118.320      -5.243     -61.054
  O     -118.865      -7.599     -60.292
  H     -124.443      -2.459     -64.217
  H     -118.274      -7.257     -59.593
  H     -128.270      -5.011     -65.892
  H     -123.911      -7.621     -61.926
  H     -123.550      -5.724     -65.022
  H     -124.148      -4.069     -62.487
  H     -122.143      -2.805     -63.013
  H     -120.649      -5.092     -63.566
  H     -120.523      -4.111     -61.352
  H     -130.069      -7.777     -62.852
  H     -128.757      -8.392     -61.847
  H     -122.174      -4.622     -60.970
  P     -121.179      -2.251     -65.459
  C     -118.762      -2.785     -66.100
  O     -120.104      -2.716     -66.547
  O     -120.640      -1.368     -64.384
  O     -122.290      -1.496     -66.337
  H     -122.041      -0.560     -66.437
  H     -118.342      -1.777     -66.033
  H     -118.176      -3.368     -66.816
  H     -118.700      -3.268     -65.118
  H     -117.838      -7.781     -64.279
  H     -117.208      -8.019     -62.667
  H     -117.183      -6.428     -63.389

 3  4  5  6  7  8  9  10  11  12  22  25  29  30  31  32 0
 6-311+G(2d,p)
 ****
 33  36  37 0
 6-311+G(2d,p)
 ****
 1  2  13  14  15  16  17  18  19  20  21  23  24  26 0
 3-21G
 ****
 27  28  34  35  38  39  40  41  42  43  44  45  46  47  48 0
 3-21G
 ****


