%nproc=1
%NoSave
%Mem=1900MB
#P OB98/GEN NMR

erre ene a

0 1
  C        7.463    -145.293       0.516
  O        6.921    -146.030       1.592
  H        7.337    -144.227       0.724
  H        6.946    -145.531      -0.416
  H        8.533    -145.501       0.414
  P        6.880    -147.627       1.478
  C        8.210    -147.825       3.686
  O        8.131    -148.180       2.314
  C        9.001    -148.877       4.476
  O        8.281    -150.142       4.428
  C       10.413    -149.136       3.925
  O       11.240    -149.521       5.031
  C       10.163    -150.316       3.007
  O       11.366    -150.942       2.634
  C        9.172    -151.121       3.853
  N        8.461    -152.125       3.077
  C        9.087    -153.367       2.954
  O       10.185    -153.565       3.475
  N        8.468    -154.347       2.220
  C        7.356    -154.086       1.604
  N        6.802    -155.094       0.882
  C        6.691    -152.765       1.662
  C        7.290    -151.842       2.412
  O        6.759    -148.176       0.097
  O        5.626    -148.047       2.384
  H       11.193    -151.703       2.035
  H        4.876    -148.294       1.813
  H        5.776    -152.592       1.116
  H        6.881    -150.842       2.513
  H        9.687    -151.622       4.682
  H        9.683    -149.985       2.078
  H       10.838    -148.267       3.420
  H        9.036    -148.575       5.531
  H        7.298    -155.979       0.862
  H        7.186    -147.762       4.070
  H        5.952    -155.002       0.346
  H        8.690    -146.848       3.798
  P       11.484    -148.580       6.306
  C       10.907    -150.513       7.915
  O       10.662    -149.155       7.555
  O       11.248    -147.126       6.040
  O       13.013    -148.826       6.720
  H       13.371    -148.011       7.114
  H       10.301    -150.774       8.758
  H       11.940    -150.634       8.167
  H       10.664    -151.150       7.090

 6  7  8  9  10  11  12  13  14  15  16  26  30  31  32  33  35 0
 6-311+G(2d,p)
 ****
 37  38 0
 6-311+G(2d,p)
 ****
 1  2  3  4  5  17  18  19  20  21  22  23  24  25 0
 3-21G
 ****
 27  28  29  34  36  39  40  41  42  43  44  45  46 0
 3-21G
 ****


