%nproc=1
%NoSave
%Mem=1900MB
#P OB98/GEN NMR

erre ene a

0 1
  C       -5.982    -152.032    -212.731
  O       -6.530    -152.277    -214.006
  P       -7.163    -151.080    -214.866
  C       -7.949    -152.690    -216.717
  O       -8.343    -151.733    -215.739
  C       -9.071    -153.696    -216.953
  O       -9.179    -154.628    -215.842
  C      -10.454    -153.069    -217.051
  O      -10.711    -152.234    -218.161
  C      -11.346    -154.290    -216.886
  O      -11.473    -155.011    -218.111
  C      -10.545    -155.116    -215.850
  N      -11.149    -155.055    -214.520
  C      -12.365    -155.716    -214.369
  O      -12.926    -156.324    -215.282
  N      -12.941    -155.631    -213.133
  C      -12.457    -154.928    -212.065
  O      -13.054    -154.857    -210.998
  C      -11.179    -154.234    -212.290
  C      -10.590    -154.328    -213.486
  O       -6.183    -150.275    -215.648
  O       -7.977    -150.237    -213.774
  H      -11.964    -155.833    -217.919
  H       -8.678    -150.732    -213.315
  H      -13.829    -156.090    -213.005
  H      -10.761    -153.679    -211.459
  H       -9.647    -153.828    -213.672
  H      -10.498    -156.172    -216.156
  H      -12.357    -154.015    -216.567
  H      -10.609    -152.438    -216.166
  H       -8.827    -154.283    -217.842
  H       -7.062    -153.223    -216.352
  H       -7.672    -152.176    -217.645
  P      -11.690    -150.967    -218.100
  C      -11.246    -149.956    -220.445
  O      -12.156    -150.620    -219.594
  O      -11.264    -149.829    -217.231
  O      -13.023    -151.621    -217.483
  H      -13.491    -150.948    -216.957
  H      -11.743    -149.763    -221.401
  H      -10.371    -150.584    -220.630
  H      -10.938    -148.999    -220.011
  H       -5.613    -152.948    -212.319
  H       -6.738    -151.632    -212.089
  H       -5.179    -151.330    -212.817

 3  4  5  6  7  8  9  10  11  12  13  23  28  29  30  31  32 0
 6-311+G(2d,p)
 ****
 33  34 0
 6-311+G(2d,p)
 ****
 1  2  14  15  16  17  18  19  20  21  22  24  25  26  27 0
 3-21G
 ****
 35  36  37  38  39  40  41  42  43  44  45 0
 3-21G
 ****


