%nproc=1
%NoSave
%Mem=1900MB
#P OB98/GEN NMR

erre ene a

0 1
  C      256.219     290.901     296.992
  O      256.873     291.774     296.088
  H      255.157     291.156     297.020
  H      256.639     291.013     297.995
  H      256.327     289.865     296.657
  P      258.471     291.633     295.986
  C      258.832     293.687     297.558
  O      258.991     292.291     297.358
  C      259.000     294.029     299.030
  O      257.979     293.390     299.830
  C      260.326     293.573     299.639
  O      261.422     294.415     299.291
  C      259.990     293.671     301.115
  O      259.977     295.052     301.522
  C      258.561     293.069     301.123
  N      258.552     291.621     301.352
  C      258.305     291.194     302.665
  O      258.113     292.007     303.564
  N      258.319     289.846     302.929
  C      258.530     288.995     301.968
  N      258.531     287.671     302.297
  C      258.784     289.398     300.577
  C      258.782     290.710     300.336
  O      258.865     292.733     294.893
  O      258.990     290.261     295.705
  H      259.337     295.507     300.949
  H      259.853     292.834     294.860
  H      258.969     288.656     299.811
  H      258.960     291.086     299.337
  H      257.946     293.553     301.892
  H      260.707     293.154     301.759
  H      260.544     292.530     299.389
  H      258.870     295.115     299.143
  H      258.420     287.429     303.268
  H      257.818     293.966     297.221
  H      258.837     286.950     301.660
  H      259.558     294.239     296.963
  P      262.884     293.741     299.271
  C      263.662     295.119     301.343
  O      263.454     293.835     300.764
  O      263.764     294.816     298.473
  O      262.942     292.386     298.642
  H      264.448     294.375     297.936
  H      264.043     295.005     302.336
  H      262.734     295.650     301.376
  H      264.366     295.667     300.752

 6  7  8  9  10  11  12  13  14  15  16  26  30  31  32  33  35 0
 6-311+G(2d,p)
 ****
 37  38 0
 6-311+G(2d,p)
 ****
 1  2  3  4  5  17  18  19  20  21  22  23  24  25 0
 3-21G
 ****
 27  28  29  34  36  39  40  41  42  43  44  45  46 0
 3-21G
 ****


