%nproc=1
%NoSave
%Mem=1900MB
#P OB98/GEN NMR

erre ene a

0 1
  C      -58.181     128.786    -752.212
  O      -59.242     129.628    -752.603
  H      -58.465     128.263    -751.294
  H      -57.285     129.381    -752.006
  H      -57.962     128.041    -752.981
  P      -59.168     130.361    -754.028
  C      -58.826     132.661    -752.910
  O      -58.302     131.695    -753.817
  C      -59.105     133.965    -753.648
  O      -59.868     134.860    -752.811
  C      -57.847     134.738    -754.048
  O      -57.221     134.145    -755.169
  C      -58.439     136.123    -754.297
  O      -59.046     136.194    -755.596
  C      -59.504     136.210    -753.178
  N      -59.053     136.972    -752.011
  C      -59.280     138.342    -752.039
  O      -59.788     138.922    -752.994
  N      -58.870     139.034    -750.928
  C      -58.205     138.519    -749.856
  O      -57.813     139.184    -748.910
  C      -57.966     137.065    -749.896
  C      -58.390     136.367    -750.951
  O      -60.473     130.560    -754.735
  O      -58.177     129.426    -754.876
  H      -58.328     136.093    -756.250
  H      -58.697     128.852    -755.469
  H      -59.015     140.034    -750.931
  H      -57.434     136.612    -749.066
  H      -58.221     135.305    -751.005
  H      -60.419     136.691    -753.560
  H      -57.686     136.913    -754.261
  H      -57.157     134.800    -753.196
  H      -59.711     133.730    -754.537
  H      -58.086     132.846    -752.123
  H      -59.738     132.268    -752.461
  P      -55.679     134.435    -755.488
  C      -56.351     135.543    -757.698
  O      -55.615     135.690    -756.491
  O      -54.890     133.242    -755.921
  O      -55.108     135.028    -754.112
  H      -54.557     134.359    -753.667
  H      -56.244     136.427    -758.291
  H      -57.385     135.391    -757.469
  H      -55.978     134.701    -758.243

 6  7  8  9  10  11  12  13  14  15  16  26  31  32  33  34  35 0
 6-311+G(2d,p)
 ****
 36  37 0
 6-311+G(2d,p)
 ****
 1  2  3  4  5  17  18  19  20  21  22  23  24  25 0
 3-21G
 ****
 27  28  29  30  38  39  40  41  42  43  44  45 0
 3-21G
 ****


