%nproc=1
%NoSave
%Mem=1900MB
#P OB98/GEN NMR

erre ene a

0 1
  C       44.530     -24.307      27.609
  O       43.178     -24.373      27.190
  P       42.141     -25.200      28.087
  C       43.364     -27.480      27.838
  O       42.186     -26.727      27.599
  C       43.214     -28.898      27.282
  O       44.478     -29.611      27.431
  C       42.133     -29.733      27.985
  O       41.552     -30.601      27.002
  C       42.943     -30.552      28.972
  O       42.260     -31.708      29.433
  C       44.188     -30.839      28.127
  N       45.326     -31.289      28.925
  C       46.093     -32.330      28.415
  O       45.869     -32.889      27.341
  N       47.113     -32.768      29.216
  C       47.380     -32.340      30.483
  O       48.236     -32.854      31.194
  C       46.536     -31.238      30.971
  C       45.565     -30.770      30.183
  O       40.718     -24.679      27.574
  O       42.305     -25.018      29.558
  H       42.812     -32.118      30.122
  H       40.355     -24.017      28.190
  H       47.687     -33.515      28.856
  H       46.734     -30.859      31.965
  H       44.916     -29.972      30.526
  H       43.959     -31.594      27.363
  H       43.186     -29.934      29.844
  H       41.358     -29.130      28.468
  H       43.004     -28.830      26.207
  H       43.543     -27.534      28.913
  H       44.222     -26.976      27.381
  P       39.953     -30.589      26.841
  C       39.691     -32.757      28.276
  O       39.458     -32.097      27.051
  O       39.815     -30.354      25.262
  O       39.275     -29.543      27.663
  H       40.440     -30.890      24.748
  H       39.641     -32.066      29.122
  H       40.677     -33.227      28.252
  H       38.934     -33.533      28.409
  H       45.092     -23.723      26.910
  H       44.937     -25.295      27.657
  H       44.582     -23.853      28.576

 3  4  5  6  7  8  9  10  11  12  13  23  28  29  30  31  32 0
 6-311+G(2d,p)
 ****
 33  34 0
 6-311+G(2d,p)
 ****
 1  2  14  15  16  17  18  19  20  21  22  24  25  26 0
 3-21G
 ****
 27  35  36  37  38  39  40  41  42  43  44  45 0
 3-21G
 ****


