%nproc=1
%NoSave
%Mem=1900MB
#P OB98/GEN NMR

erre ene a

0 1
  C      635.203     290.606     529.517
  O      634.073     291.449     529.574
  P      632.732     290.861     530.225
  C      631.280     290.183     528.161
  O      632.160     289.757     529.209
  C      630.076     289.258     528.089
  O      630.504     287.884     528.008
  C      629.144     289.324     529.291
  O      628.354     290.496     529.269
  C      628.369     288.014     529.139
  O      627.353     288.176     528.130
  C      629.475     287.047     528.614
  N      629.762     282.379     530.723
  C      629.059     282.868     529.681
  N      629.012     284.122     529.185
  C      629.828     284.917     529.908
  C      630.587     284.595     530.999
  C      630.559     283.265     531.414
  N      631.278     282.781     532.488
  N      631.263     285.704     531.492
  C      630.925     286.678     530.672
  N      630.058     286.263     529.683
  O      631.683     292.068     530.097
  O      632.877     290.398     531.640
  H      626.908     287.310     528.021
  H      631.070     292.072     530.847
  H      628.428     282.122     529.154
  H      631.263     287.708     530.754
  H      629.116     286.364     527.858
  H      627.890     287.685     530.050
  H      629.728     289.298     530.226
  H      629.529     289.488     527.165
  H      631.823     290.157     527.197
  H      631.068     281.846     532.813
  H      631.739     283.452     533.093
  H      630.975     291.223     528.364
  P      628.071     291.249     530.653
  C      625.617     290.527     530.635
  O      626.855     290.432     531.312
  O      627.368     292.602     530.167
  O      629.296     291.402     531.521
  H      626.648     292.436     529.529
  H      624.901     289.878     531.157
  H      625.723     290.162     529.603
  H      625.251     291.546     530.646
  H      636.016     291.130     529.061
  H      634.970     289.736     528.939
  H      635.479     290.312     530.508

 3  4  5  6  7  8  9  10  11  12  22  25  29  30  31  32 0
 6-311+G(2d,p)
 ****
 33  36  37 0
 6-311+G(2d,p)
 ****
 1  2  13  14  15  16  17  18  19  20  21  23  24  26 0
 3-21G
 ****
 27  28  34  35  38  39  40  41  42  43  44  45  46  47  48 0
 3-21G
 ****


