%nproc=1
%NoSave
%Mem=1900MB
#P OB98/GEN NMR

erre ene a

0 1
  C     -180.708     206.422      85.528
  O     -180.693     206.769      84.157
  H     -179.719     206.053      85.807
  H     -181.446     205.636      85.715
  H     -180.941     207.303      86.134
  P     -182.075     207.285      83.530
  C     -182.660     204.969      82.556
  O     -183.011     205.980      83.496
  C     -183.916     204.364      81.930
  O     -183.511     203.478      80.853
  C     -184.758     203.543      82.912
  O     -186.141     203.714      82.601
  C     -184.349     202.112      82.605
  O     -185.339     201.168      83.005
  C     -184.107     202.191      81.099
  N     -183.940     197.921      78.331
  C     -184.890     198.869      78.475
  N     -184.843     199.992      79.220
  C     -183.638     200.118      79.812
  C     -182.575     199.236      79.760
  C     -182.761     198.080      78.980
  N     -181.814     197.090      78.855
  N     -181.530     199.695      80.538
  C     -181.954     200.839      81.046
  N     -183.232     201.124      80.649
  O     -181.963     208.019      82.236
  O     -182.698     208.123      84.742
  H     -185.974     201.052      82.265
  H     -182.634     207.634      85.585
  H     -185.815     198.699      77.927
  H     -181.385     201.480      81.710
  H     -185.035     202.118      80.517
  H     -183.422     201.868      83.136
  H     -184.577     203.806      83.956
  H     -184.507     205.168      81.474
  H     -182.081     204.182      83.050
  H     -182.032     196.297      78.274
  H     -180.926     197.192      79.326
  H     -182.032     205.431      81.787
  P     -187.155     204.152      83.764
  C     -187.829     201.777      84.502
  O     -187.195     202.992      84.875
  O     -188.491     204.636      83.309
  O     -186.348     205.317      84.516
  H     -186.964     206.043      84.732
  H     -187.791     201.089      85.321
  H     -187.324     201.355      83.658
  H     -188.850     201.971      84.246

 6  7  8  9  10  11  12  13  14  15  25  28  32  33  34  35 0
 6-311+G(2d,p)
 ****
 36  39  40 0
 6-311+G(2d,p)
 ****
 1  2  3  4  5  16  17  18  19  20  21  22  23  24 0
 3-21G
 ****
 26  27  29  30  31  37  38  41  42  43  44  45  46  47 0
 3-21G
 ****
 48 0
 3-21G
 ****


