%nproc=1
%NoSave
%Mem=1900MB
#P OB98/GEN NMR

erre ene a

0 1
  C        7.163      -8.229     -73.105
  O        6.389      -9.078     -72.284
  H        6.923      -8.437     -74.152
  H        8.228      -8.418     -72.945
  H        6.935      -7.181     -72.892
  P        6.561      -8.902     -70.699
  C        8.522     -10.608     -70.624
  O        8.086      -9.278     -70.368
  C        7.995     -11.542     -69.539
  O        8.420     -12.894     -69.820
  C        8.515     -11.232     -68.140
  O        7.822     -10.149     -67.544
  C        8.281     -12.562     -67.436
  O        6.931     -12.682     -66.969
  C        8.541     -13.580     -68.554
  N       11.238     -17.153     -66.119
  C        9.931     -16.815     -66.067
  N        9.284     -15.858     -66.766
  C       10.132     -15.226     -67.594
  C       11.488     -15.455     -67.751
  C       12.048     -16.475     -66.966
  N       13.384     -16.795     -66.993
  N       12.025     -14.569     -68.664
  C       11.012     -13.827     -69.058
  N        9.848     -14.192     -68.443
  O        5.729     -10.137     -70.109
  O        6.093      -7.597     -70.148
  H        6.355     -12.550     -67.746
  H        4.825      -9.846     -69.889
  H        9.326     -17.387     -65.369
  H       11.071     -13.015     -69.774
  H        7.802     -14.391     -68.554
  H        8.935     -12.673     -66.570
  H        9.593     -11.032     -68.171
  H        6.898     -11.518     -69.561
  H        9.617     -10.636     -70.623
  H        8.159     -10.917     -71.609
  H       13.721     -17.524     -66.385
  H       14.014     -16.225     -67.542
  P        8.661      -9.069     -66.712
  C        8.866     -10.445     -64.516
  O        9.533      -9.864     -65.625
  O        7.544      -8.331     -65.838
  O        9.442      -8.110     -67.546
  H        7.303      -7.477     -66.244
  H        9.580     -10.936     -63.888
  H        8.148     -11.158     -64.865
  H        8.367      -9.680     -63.959

 6  7  8  9  10  11  12  13  14  15  25  28  32  33  34  35 0
 6-311+G(2d,p)
 ****
 36  37  40 0
 6-311+G(2d,p)
 ****
 1  2  3  4  5  16  17  18  19  20  21  22  23  24 0
 3-21G
 ****
 26  27  29  30  31  38  39 41  42  43  44  45  46  47  48 0
 3-21G
 ****


