%nproc=1
%NoSave
%Mem=1900MB
#P OB98/GEN NMR

erre ene a

0 1
  C      235.016    -441.271      -8.970
  O      235.061    -441.777     -10.294
  H      234.751    -440.211      -8.991
  H      234.249    -441.817      -8.411
  H      235.981    -441.407      -8.473
  P      236.303    -441.340     -11.209
  C      235.013    -440.833     -13.404
  O      235.900    -441.707     -12.720
  C      234.493    -441.489     -14.686
  O      235.637    -441.947     -15.469
  C      233.573    -442.697     -14.447
  O      232.531    -442.676     -15.418
  C      234.484    -443.888     -14.733
  O      233.769    -445.051     -15.128
  C      235.387    -443.314     -15.820
  N      237.538    -447.416     -17.934
  C      236.395    -446.750     -18.217
  N      235.920    -445.631     -17.632
  C      236.789    -445.163     -16.722
  C      237.991    -445.733     -16.332
  C      238.350    -446.928     -16.973
  N      239.478    -447.655     -16.643
  N      238.565    -444.985     -15.307
  C      237.718    -444.002     -15.087
  N      236.630    -444.070     -15.908
  O      237.405    -442.448     -10.832
  O      236.803    -439.951     -10.986
  H      233.070    -445.233     -14.470
  H      237.916    -442.147     -10.057
  H      235.774    -447.183     -19.008
  H      237.830    -443.243     -14.321
  H      234.926    -443.335     -16.813
  H      235.064    -444.128     -13.826
  H      233.147    -442.741     -13.436
  H      233.979    -440.728     -15.281
  H      235.548    -439.911     -13.668
  H      239.595    -448.557     -17.083
  H      240.038    -447.358     -15.859
  H      234.179    -440.576     -12.742
  P      231.159    -441.947     -15.012
  C      228.875    -442.773     -15.967
  O      230.115    -442.111     -16.219
  O      231.540    -440.389     -15.064
  O      230.638    -442.339     -13.664
  H      231.037    -439.894     -14.395
  H      228.296    -442.800     -16.866
  H      228.335    -442.243     -15.211
  H      229.065    -443.772     -15.635

 6  7  8  9  10  11  12  13  14  15  25  28  32  33  34  35 0
 6-311+G(2d,p)
 ****
 36  39  40 0
 6-311+G(2d,p)
 ****
 1  2  3  4  5  16  17  18  19  20  21  22  23  24 0
 3-21G
 ****
 26  27  29  30  31  37  38  41  42  43  44  45  46  47 0
 3-21G
 ****
 48 0
 3-21G
 ****


