%nproc=1
%NoSave
%Mem=1900MB
#P OB98/GEN NMR

erre ene a

0 1
  C      258.215      57.768      52.814
  O      256.887      57.447      53.195
  P      256.672      56.494      54.465
  C      257.180      54.131      53.518
  O      256.188      55.060      53.931
  C      257.102      53.888      52.008
  O      258.089      52.896      51.624
  C      255.735      53.375      51.540
  O      255.460      53.889      50.227
  C      255.948      51.882      51.404
  O      255.009      51.299      50.502
  C      257.398      51.840      50.926
  N      257.819      47.057      49.349
  C      257.299      48.153      48.693
  N      256.739      47.922      47.485
  N      257.333      49.367      49.171
  C      257.917      49.448      50.393
  C      258.483      48.434      51.136
  C      258.428      47.093      50.599
  O      258.844      46.077      51.142
  N      259.010      48.908      52.308
  C      258.730      50.197      52.298
  N      258.036      50.564      51.176
  O      255.359      57.104      55.150
  O      257.815      56.469      55.425
  H      254.121      51.586      50.793
  H      255.605      57.599      55.954
  H      257.761      46.135      48.943
  H      258.982      50.897      53.087
  H      257.473      52.049      49.853
  H      255.830      51.396      52.380
  H      256.623      47.001      47.091
  H      254.905      53.622      52.208
  H      256.311      48.703      47.003
  H      257.364      54.819      51.491
  H      257.022      53.186      54.038
  H      258.171      54.510      53.785
  P      254.061      54.659      50.053
  C      253.595      52.823      48.269
  O      253.472      54.180      48.645
  O      254.508      56.173      49.786
  O      253.144      54.535      51.223
  H      253.799      56.786      50.056
  H      252.596      52.390      48.177
  H      254.168      52.242      48.996
  H      254.097      52.769      47.299
  H      258.195      58.407      51.956
  H      258.745      56.869      52.577
  H      258.706      58.270      53.621

 3  4  5  6  7  8  9  10  11  12  23  26  30  31 0
 6-311+G(2d,p)
 ****
 33  35  36  37  38 0
 6-311+G(2d,p)
 ****
 1  2  13  14  15  16  17  18  19  20  21  22  24  25 0
 3-21G
 ****
 27  28  29  32  34  39  40  41  42  43  44  45  46  47  48  49 0
 3-21G
 ****


