%nproc=1
%NoSave
%Mem=1900MB
#P OB98/GEN NMR

erre ene a

0 1
  C        9.422     -82.604     136.983
  O        8.188     -82.509     136.301
  H       10.209     -82.201     136.344
  H        9.643     -83.656     137.193
  H        9.397     -82.036     137.917
  P        6.856     -82.754     137.161
  C        6.508     -85.231     136.475
  O        6.811     -84.319     137.523
  C        6.091     -86.584     137.056
  O        4.964     -86.384     137.949
  C        5.663     -87.604     135.994
  O        6.135     -88.901     136.380
  C        4.146     -87.573     136.057
  O        3.550     -88.789     135.604
  C        3.914     -87.278     137.533
  N       -1.019     -88.268     137.851
  C        0.059     -89.127     137.702
  N       -0.225     -90.446     137.622
  N        1.299     -88.720     137.643
  C        1.431     -87.381     137.775
  C        0.455     -86.429     137.921
  C       -0.923     -86.886     137.957
  O       -1.917     -86.177     138.063
  N        0.988     -85.167     137.989
  C        2.290     -85.356     137.880
  N        2.611     -86.685     137.761
  O        5.690     -82.586     136.076
  O        6.663     -81.831     138.318
  H        2.643     -88.828     135.975
  H        5.140     -81.811     136.305
  H       -1.958     -88.635     137.880
  H        3.037     -84.576     137.881
  H        3.971     -88.184     138.153
  H        3.768     -86.755     135.433
  H       -1.148     -90.831     137.709
  H        6.037     -87.369     134.993
  H        0.550     -91.093     137.552
  H        6.914     -86.973     137.660
  H        7.394     -85.358     135.846
  H        5.695     -84.823     135.865
  P        7.473     -89.432     135.670
  C        6.884     -90.542     133.401
  O        7.266     -89.348     134.076
  O        7.447     -91.004     135.970
  O        8.723     -88.796     136.182
  H        8.128     -91.227     136.634
  H        6.782     -90.343     132.355
  H        5.950     -90.889     133.791
  H        7.633     -91.292     133.551

 6  7  8  9  10  11  12  13  14  15  26  29  33  34 0
 6-311+G(2d,p)
 ****
 36  38  39  40  41 0
 6-311+G(2d,p)
 ****
 1  2  3  4  5  16  17  18  19  20  21  22  23  24  25 0
 3-21G
 ****
 27  28  30  31  32  35  37  42  43  44  45  46  47 0
 3-21G
 ****
 48  49 0
 3-21G
 ****


