%nproc=1
%NoSave
%Mem=1900MB
#P OB98/GEN NMR

erre ene a

0 1
  C     -841.277     -27.756    -770.645
  O     -841.315     -29.001    -769.947
  P     -839.988     -29.909    -769.970
  C     -839.621     -32.098    -771.313
  O     -840.001     -30.739    -771.351
  C     -839.345     -32.647    -772.712
  O     -840.613     -32.854    -773.405
  C     -838.496     -31.725    -773.605
  O     -837.707     -32.545    -774.466
  C     -839.538     -30.993    -774.446
  O     -838.988     -30.441    -775.635
  C     -840.554     -32.106    -774.653
  N     -843.746     -31.063    -778.507
  C     -842.510     -31.585    -778.493
  N     -841.723     -31.840    -777.415
  C     -842.342     -31.497    -776.282
  C     -843.590     -30.917    -776.140
  C     -844.321     -30.692    -777.324
  N     -845.592     -30.168    -777.346
  N     -843.871     -30.665    -774.812
  C     -842.808     -31.091    -774.157
  N     -841.860     -31.607    -774.999
  O     -840.310     -31.019    -768.860
  O     -838.702     -29.197    -769.671
  H     -839.674     -29.877    -776.055
  H     -839.730     -30.904    -768.082
  H     -842.092     -31.844    -779.465
  H     -842.668     -31.029    -773.075
  H     -840.242     -32.811    -775.445
  H     -839.973     -30.168    -773.856
  H     -837.848     -31.029    -773.034
  H     -838.864     -33.631    -772.627
  H     -840.440     -32.678    -770.872
  H     -846.102     -30.190    -778.220
  H     -846.092     -30.076    -776.474
  H     -838.746     -32.220    -770.678
  P     -836.117     -32.335    -774.428
  C     -834.568     -30.344    -775.081
  O     -835.853     -30.769    -774.671
  O     -835.613     -33.016    -775.799
  O     -835.431     -32.938    -773.226
  H     -834.695     -33.322    -775.692
  H     -834.684     -29.462    -775.720
  H     -834.053     -31.152    -775.652
  H     -833.970     -30.061    -774.214
  H     -842.221     -27.262    -770.545
  H     -841.075     -27.934    -771.681
  H     -840.506     -27.139    -770.232

 3  4  5  6  7  8  9  10  11  12  22  25  29  30  31  32 0
 6-311+G(2d,p)
 ****
 33  36  37 0
 6-311+G(2d,p)
 ****
 1  2  13  14  15  16  17  18  19  20  21  23  24  26 0
 3-21G
 ****
 27  28  34  35  38  39  40  41  42  43  44  45  46  47  48 0
 3-21G
 ****


