%nproc=1
%NoSave
%Mem=1900MB
#P OB98/GEN NMR

erre ene a

0 1
  C     -272.641    -188.928     -53.246
  O     -272.253    -187.678     -53.784
  P     -273.425    -186.753     -54.393
  C     -273.059    -187.735     -56.790
  O     -273.949    -187.505     -55.710
  C     -273.505    -186.925     -58.008
  O     -274.726    -187.468     -58.549
  C     -273.785    -185.456     -57.713
  O     -272.581    -184.717     -57.693
  C     -274.714    -185.089     -58.863
  O     -273.965    -184.814     -60.065
  C     -275.554    -186.364     -59.014
  N     -280.547    -187.092     -59.378
  C     -279.580    -187.032     -60.368
  N     -280.005    -187.243     -61.633
  N     -278.318    -186.793     -60.137
  C     -278.038    -186.591     -58.825
  C     -278.908    -186.609     -57.764
  C     -280.294    -186.925     -58.022
  O     -281.167    -187.086     -57.178
  N     -278.263    -186.337     -56.580
  C     -277.001    -186.185     -56.935
  N     -276.808    -186.349     -58.284
  O     -272.626    -185.488     -54.958
  O     -274.505    -186.373     -53.424
  H     -273.384    -184.053     -59.903
  H     -272.666    -184.743     -54.323
  H     -281.500    -187.296     -59.617
  H     -276.192    -185.978     -56.252
  H     -275.803    -186.573     -60.066
  H     -275.300    -184.193     -58.649
  H     -280.964    -187.408     -61.889
  H     -274.321    -185.356     -56.758
  H     -279.311    -187.199     -62.377
  H     -272.726    -187.019     -58.775
  H     -273.061    -188.802     -57.038
  H     -272.043    -187.452     -56.487
  P     -272.559    -183.355     -56.844
  C     -273.510    -181.778     -58.678
  O     -273.717    -182.415     -57.429
  O     -271.204    -182.644     -57.322
  O     -272.576    -183.552     -55.363
  H     -270.798    -182.173     -56.568
  H     -274.481    -181.646     -59.167
  H     -272.859    -182.372     -59.330
  H     -273.055    -180.798     -58.511
  H     -271.777    -189.441     -52.877
  H     -273.106    -189.516     -54.009
  H     -273.333    -188.772     -52.445

 3  4  5  6  7  8  9  10  11  12  23  26  30  31 0
 6-311+G(2d,p)
 ****
 33  35  36  37  38 0
 6-311+G(2d,p)
 ****
 1  2  13  14  15  16  17  18  19  20  21  22  24  25 0
 3-21G
 ****
 27  28  29  32  34  39  40  41  42  43  44  45  46  47  48  49 0
 3-21G
 ****


