%nproc=1
%NoSave
%Mem=1900MB
#P OB98/GEN NMR

erre ene a

0 1
  C     -341.538    1052.377     394.839
  O     -342.666    1053.125     394.423
  H     -341.306    1052.655     395.867
  H     -340.689    1052.622     394.219
  H     -341.749    1051.310     394.808
  P     -343.336    1052.797     393.005
  C     -345.692    1052.808     394.053
  O     -344.835    1053.355     393.048
  C     -347.142    1053.215     393.761
  O     -347.522    1052.807     392.407
  C     -348.162    1052.568     394.702
  O     -348.170    1053.164     395.986
  C     -349.451    1052.760     393.883
  O     -349.971    1054.084     394.087
  C     -348.947    1052.569     392.439
  N     -349.262    1051.244     391.905
  C     -350.457    1051.150     391.180
  O     -351.192    1052.123     390.944
  N     -350.787    1049.889     390.753
  C     -350.146    1048.729     391.102
  O     -350.611    1047.633     390.916
  C     -348.889    1048.898     391.851
  C     -348.525    1050.127     392.224
  O     -343.187    1051.381     392.539
  O     -342.604    1053.818     392.008
  H     -341.910    1053.336     391.505
  H     -350.672    1054.209     393.412
  H     -351.670    1049.808     390.248
  H     -348.298    1048.008     392.085
  H     -347.584    1050.270     392.773
  H     -349.400    1053.321     391.780
  H     -350.206    1052.056     394.184
  H     -347.956    1051.493     394.770
  H     -347.216    1054.332     393.816
  H     -345.386    1053.215     395.022
  H     -345.584    1051.711     394.053
  P     -348.911    1052.458     397.200
  C     -347.138    1053.661     398.625
  O     -348.472    1053.194     398.565
  O     -348.814    1050.958     397.238
  O     -350.426    1052.901     397.037
  H     -351.006    1052.087     397.069
  H     -346.966    1054.128     399.572
  H     -346.973    1054.371     397.842
  H     -346.466    1052.837     398.506

 6  7  8  9  10  11  12  13  14  15  16  27  31  32  33  34  35 0
 6-311+G(2d,p)
 ****
 36  37 0
 6-311+G(2d,p)
 ****
 1  2  3  4  5  17  18  19  20  21  22  23  24  25 0
 3-21G
 ****
 26  28  29  30  38  39  40  41  42  43  44  45 0
 3-21G
 ****


