%nproc=1
%NoSave
%Mem=1900MB
#P OB98/GEN NMR

erre ene a

0 1
  C       77.497      16.072     503.880
  O       76.183      15.724     504.303
  P       74.958      16.328     503.446
  C       74.356      17.557     505.673
  O       74.431      17.606     504.256
  C       73.926      18.926     506.217
  O       74.876      19.940     505.810
  C       72.568      19.397     505.725
  O       71.531      18.807     506.485
  C       72.682      20.903     505.907
  O       72.436      21.279     507.278
  C       74.146      21.162     505.520
  N       74.635      25.050     502.324
  C       74.284      25.041     503.664
  N       74.068      26.247     504.246
  N       74.152      23.947     504.370
  C       74.375      22.823     503.655
  C       74.722      22.705     502.322
  C       74.917      23.917     501.573
  O       75.317      23.988     500.415
  N       74.843      21.392     501.947
  C       74.612      20.714     503.055
  N       74.344      21.547     504.136
  O       73.805      15.224     503.644
  O       75.261      16.584     502.000
  H       72.627      22.226     507.398
  H       73.774      14.625     502.879
  H       74.742      25.927     501.838
  H       74.648      19.641     503.149
  H       74.608      21.959     506.131
  H       71.961      21.457     505.296
  H       74.136      27.126     503.752
  H       72.445      19.165     504.657
  H       73.808      26.253     505.220
  H       73.947      18.874     507.312
  H       75.337      17.296     506.080
  H       73.628      16.779     505.968
  P       70.038      18.876     505.896
  C       69.322      20.045     508.107
  O       69.270      20.028     506.691
  O       69.364      17.529     506.431
  O       69.971      18.971     504.399
  H       68.754      17.181     505.753
  H       69.248      21.082     508.457
  H       70.261      19.608     508.479
  H       68.477      19.466     508.503
  H       78.214      15.611     504.527
  H       77.614      17.135     503.918
  H       77.651      15.732     502.877

 3  4  5  6  7  8  9  10  11  12  23  26  30  31 0
 6-311+G(2d,p)
 ****
 33  35  36  37  38 0
 6-311+G(2d,p)
 ****
 1  2  13  14  15  16  17  18  19  20  21  22  24  25 0
 3-21G
 ****
 27  28  29  32  34  39  40  41  42  43  44  45  46  47  48  49 0
 3-21G
 ****


