%nproc=1
%NoSave
%Mem=1900MB
#P OB98/GEN NMR

erre ene a

0 1
  C      447.548     -65.442    -223.567
  O      447.492     -65.946    -224.888
  H      446.538     -65.133    -223.267
  H      448.205     -64.571    -223.528
  H      447.900     -66.206    -222.869
  P      448.770     -66.716    -225.473
  C      450.380     -64.712    -225.709
  O      449.560     -65.655    -226.386
  C      451.072     -63.778    -226.710
  O      452.298     -64.426    -227.172
  C      450.221     -63.458    -227.963
  O      450.568     -62.128    -228.381
  C      450.743     -64.493    -228.936
  O      450.355     -64.211    -230.263
  C      452.240     -64.431    -228.618
  N      453.005     -65.548    -229.176
  C      454.103     -65.227    -229.968
  O      454.473     -64.081    -230.201
  N      454.776     -66.301    -230.503
  C      454.449     -67.616    -230.328
  O      455.101     -68.542    -230.820
  C      453.263     -67.884    -229.507
  C      452.606     -66.848    -228.970
  O      448.496     -68.026    -226.129
  O      449.732     -66.876    -224.197
  H      449.616     -67.772    -223.822
  H      449.380     -64.102    -230.312
  H      455.572     -66.093    -231.086
  H      452.970     -68.916    -229.362
  H      451.720     -67.008    -228.357
  H      452.672     -63.486    -228.965
  H      450.334     -65.483    -228.698
  H      449.147     -63.513    -227.769
  H      451.372     -62.860    -226.192
  H      451.135     -65.258    -225.132
  H      449.757     -64.121    -225.018
  P      450.018     -60.805    -227.657
  C      448.444     -60.215    -229.613
  O      449.497     -59.770    -228.772
  O      450.992     -60.198    -226.695
  O      448.687     -61.255    -226.892
  H      448.614     -60.765    -226.059
  H      448.190     -59.441    -230.307
  H      447.588     -60.454    -229.017
  H      448.760     -61.085    -230.150

 6  7  8  9  10  11  12  13  14  15  16  27  31  32  33  34  35 0
 6-311+G(2d,p)
 ****
 36  37 0
 6-311+G(2d,p)
 ****
 1  2  3  4  5  17  18  19  20  21  22  23  24  25 0
 3-21G
 ****
 26  28  29  30  38  39  40  41  42  43  44  45 0
 3-21G
 ****


