%nproc=1
%NoSave
%Mem=1900MB
#P OB98/GEN NMR

erre ene a

0 1
  C      104.870    -217.042      51.484
  O      104.438    -216.372      52.670
  P      104.525    -217.217      54.032
  C      102.989    -215.303      54.873
  O      103.928    -216.311      55.214
  C      103.028    -214.161      55.890
  O      102.958    -214.632      57.248
  C      104.295    -213.321      55.805
  O      104.199    -212.402      54.731
  C      104.312    -212.647      57.171
  O      103.484    -211.466      57.183
  C      103.719    -213.727      58.089
  N      106.665    -213.722      62.212
  C      105.908    -212.705      61.663
  N      105.917    -211.527      62.321
  N      105.203    -212.834      60.570
  C      105.285    -214.067      60.019
  C      105.978    -215.161      60.484
  C      106.756    -215.005      61.693
  O      107.424    -215.881      62.230
  N      105.771    -216.261      59.689
  C      105.058    -215.793      58.680
  N      104.683    -214.485      58.865
  O      106.096    -217.265      54.335
  O      103.944    -218.587      53.921
  H      102.555    -211.728      57.055
  H      106.430    -218.172      54.201
  H      107.195    -213.565      63.051
  H      104.767    -216.363      57.811
  H      103.017    -213.296      58.813
  H      105.317    -212.320      57.450
  H      106.435    -211.358      63.170
  H      105.172    -213.971      55.696
  H      105.362    -210.771      61.940
  H      102.151    -213.526      55.706
  H      101.983    -215.725      54.833
  H      103.215    -214.936      53.866
  P      105.549    -211.717      54.208
  C      104.781    -209.304      53.639
  O      105.137    -210.584      53.155
  O      106.211    -212.862      53.306
  O      106.480    -211.279      55.290
  H      107.166    -212.917      53.497
  H      105.039    -208.559      52.882
  H      105.303    -209.063      54.568
  H      103.702    -209.274      53.813
  H      104.767    -216.385      50.646
  H      104.271    -217.915      51.329
  H      105.896    -217.328      51.589

 3  4  5  6  7  8  9  10  11  12  23  26  30  31 0
 6-311+G(2d,p)
 ****
 33  35  36  37  38 0
 6-311+G(2d,p)
 ****
 1  2  13  14  15  16  17  18  19  20  21  22  24  25 0
 3-21G
 ****
 27  28  29  32  34  39  40  41  42  43  44  45  46  47  48  49 0
 3-21G
 ****


