%nproc=1
%NoSave
%Mem=1900MB
#P OB98/GEN NMR

erre ene a

0 1
  C      176.240     -86.179    -101.502
  O      175.428     -85.255    -102.229
  P      173.957     -84.990    -101.646
  C      174.466     -82.486    -101.202
  O      173.620     -83.434    -101.836
  C      174.656     -81.253    -102.089
  O      175.626     -81.472    -103.131
  C      173.380     -80.813    -102.792
  O      172.560     -80.080    -101.899
  C      173.930     -79.966    -103.932
  O      174.203     -78.618    -103.498
  C      175.240     -80.689    -104.289
  N      175.420     -80.855    -109.351
  C      175.386     -79.767    -108.502
  N      175.433     -78.550    -109.084
  N      175.316     -79.864    -107.201
  C      175.279     -81.143    -106.757
  C      175.335     -82.300    -107.498
  C      175.409     -82.180    -108.937
  O      175.464     -83.112    -109.731
  N      175.335     -83.411    -106.691
  C      175.152     -82.924    -105.479
  N      175.176     -81.551    -105.456
  O      174.154     -85.155    -100.064
  O      172.930     -85.936    -102.171
  H      174.793     -78.647    -102.723
  H      173.714     -85.970     -99.760
  H      175.466     -80.723    -110.347
  H      175.023     -83.515    -104.585
  H      176.051     -79.977    -104.481
  H      173.219     -79.885    -104.758
  H      175.489     -78.401    -110.078
  H      172.850     -81.685    -103.194
  H      175.416     -77.737    -108.478
  H      175.026     -80.441    -101.449
  H      175.436     -82.936    -100.982
  H      174.024     -82.207    -100.239
  P      171.056     -79.764    -102.349
  C      169.816     -80.931    -100.391
  O      170.159     -79.715    -101.026
  O      170.602     -81.119    -103.073
  O      170.916     -78.592    -103.264
  H      170.131     -80.904    -103.898
  H      169.693     -80.748     -99.321
  H      170.584     -81.694    -100.536
  H      168.867     -81.292    -100.798
  H      177.191     -86.273    -101.983
  H      175.758     -87.134    -101.476
  H      176.379     -85.822    -100.503

 3  4  5  6  7  8  9  10  11  12  23  26  30  31 0
 6-311+G(2d,p)
 ****
 33  35  36  37  38 0
 6-311+G(2d,p)
 ****
 1  2  13  14  15  16  17  18  19  20  21  22  24  25 0
 3-21G
 ****
 27  28  29  32  34  39  40  41  42  43  44  45  46  47  48  49 0
 3-21G
 ****


