%nproc=1
%NoSave
%Mem=1900MB
#P OB98/GEN NMR

erre ene a

0 1
  C     -424.672    1117.696    -560.783
  O     -425.178    1119.008    -560.871
  H     -425.318    1117.125    -560.105
  H     -423.661    1117.709    -560.372
  H     -424.675    1117.208    -561.767
  P     -424.490    1119.966    -561.984
  C     -426.670    1121.300    -562.490
  O     -425.335    1121.339    -561.976
  C     -427.344    1122.652    -562.268
  O     -427.571    1122.876    -560.862
  C     -426.539    1123.853    -562.786
  O     -426.728    1124.046    -564.173
  C     -427.174    1124.969    -561.985
  O     -428.449    1125.316    -562.560
  C     -427.383    1124.318    -560.615
  N     -424.894    1127.629    -557.688
  C     -425.993    1127.830    -558.524
  N     -426.505    1129.069    -558.548
  N     -426.552    1126.863    -559.207
  C     -425.929    1125.679    -559.060
  C     -424.818    1125.363    -558.307
  C     -424.229    1126.443    -557.517
  O     -423.255    1126.317    -556.771
  N     -424.480    1124.057    -558.397
  C     -425.371    1123.535    -559.258
  N     -426.261    1124.503    -559.696
  O     -424.897    1119.272    -563.363
  O     -423.009    1120.119    -561.867
  H     -428.297    1125.549    -563.478
  H     -424.171    1119.377    -564.007
  H     -424.500    1128.409    -557.168
  H     -425.411    1122.515    -559.583
  H     -428.273    1124.686    -560.097
  H     -426.569    1125.890    -561.964
  H     -426.091    1129.864    -558.077
  H     -425.477    1123.759    -562.523
  H     -427.337    1129.213    -559.104
  H     -428.329    1122.615    -562.746
  H     -427.224    1120.533    -561.954
  H     -426.636    1121.065    -563.554
  P     -425.712    1125.027    -564.935
  C     -425.472    1123.676    -567.138
  O     -425.987    1124.823    -566.498
  O     -424.292    1124.286    -564.724
  O     -425.664    1126.415    -564.448
  H     -423.568    1124.929    -564.818
  H     -425.744    1123.693    -568.173
  H     -425.876    1122.799    -566.677
  H     -424.406    1123.667    -567.049

 6  7  8  9  10  11  12  13  14  15  26  29  33  34 0
 6-311+G(2d,p)
 ****
 36  38  39  40  41 0
 6-311+G(2d,p)
 ****
 1  2  3  4  5  16  17  18  19  20  21  22  23  24  25 0
 3-21G
 ****
 27  28  30  31  32  35  37  42  43  44  45  46  47 0
 3-21G
 ****
 48  49 0
 3-21G
 ****


