%nproc=1
%NoSave
%Mem=1900MB
#P OB98/GEN NMR

erre ene a

0 1
  C      173.898     394.596    -546.555
  O      173.934     394.864    -545.169
  P      172.636     394.675    -544.247
  C      172.991     392.370    -543.164
  O      172.355     393.092    -544.206
  C      171.985     391.561    -542.352
  O      171.118     392.464    -541.609
  C      171.082     390.638    -543.179
  O      170.827     389.485    -542.371
  C      169.820     391.469    -543.337
  O      168.688     390.682    -543.685
  C      169.754     392.149    -541.963
  N      168.900     393.332    -541.983
  C      167.522     393.110    -542.024
  O      167.083     391.963    -542.125
  N      166.674     394.189    -542.015
  C      167.166     395.391    -542.058
  N      166.281     396.422    -542.041
  C      168.615     395.666    -542.145
  C      169.419     394.602    -542.088
  O      171.462     395.512    -544.624
  O      173.180     394.965    -542.769
  H      167.938     391.282    -543.869
  H      173.283     395.940    -542.626
  H      168.978     396.679    -542.237
  H      170.489     394.703    -542.139
  H      169.373     391.457    -541.206
  H      169.963     392.211    -544.127
  H      171.513     390.348    -544.142
  H      172.537     390.965    -541.612
  H      165.302     396.188    -541.967
  H      173.484     393.084    -542.501
  H      166.561     397.389    -541.992
  H      173.768     391.711    -543.586
  P      170.494     388.058    -543.034
  C      173.004     387.587    -543.076
  O      171.799     387.597    -543.821
  O      169.225     388.014    -543.826
  O      170.442     387.050    -541.785
  H      169.998     386.223    -542.057
  H      173.753     386.996    -543.617
  H      172.853     387.145    -542.088
  H      173.376     388.610    -542.964
  H      174.862     394.785    -546.980
  H      173.172     395.229    -547.022
  H      173.633     393.572    -546.713

 3  4  5  6  7  8  9  10  11  12  13  23  27  28  29  30  32 0
 6-311+G(2d,p)
 ****
 34  35 0
 6-311+G(2d,p)
 ****
 1  2  14  15  16  17  18  19  20  21  22  24  25  26 0
 3-21G
 ****
 31  33  36  37  38  39  40  41  42  43  44  45  46 0
 3-21G
 ****


