%nproc=1
%NoSave
%Mem=1900MB
#P OB98/GEN NMR

erre ene a

0 1
  C      304.507     179.520    -124.624
  O      304.067     178.241    -125.088
  P      302.671     177.714    -124.488
  C      301.586     177.322    -126.811
  O      301.998     176.743    -125.578
  C      300.860     176.303    -127.696
  O      301.804     175.403    -128.341
  C      299.862     175.420    -126.927
  O      298.766     175.161    -127.819
  C      300.643     174.136    -126.710
  O      299.782     173.041    -126.405
  C      301.377     174.049    -128.045
  N      304.042     170.787    -130.832
  C      302.884     171.470    -131.132
  N      302.386     171.304    -132.376
  N      302.262     172.257    -130.292
  C      302.898     172.362    -129.089
  C      304.065     171.751    -128.675
  C      304.718     170.858    -129.621
  O      305.748     170.235    -129.405
  N      304.408     172.137    -127.405
  C      303.409     172.923    -127.032
  N      302.504     173.146    -128.034
  O      301.747     179.024    -124.515
  O      302.779     177.144    -123.117
  H      300.356     172.263    -126.248
  H      301.703     179.425    -123.631
  H      304.467     170.185    -131.515
  H      303.315     173.385    -126.059
  H      300.719     173.709    -128.861
  H      301.356     174.260    -125.881
  H      302.835     170.748    -133.088
  H      299.495     175.857    -125.992
  H      301.554     171.824    -132.632
  H      300.335     176.848    -128.491
  H      302.457     177.703    -127.353
  H      300.954     178.191    -126.606
  P      297.314     175.657    -127.378
  C      296.516     176.037    -129.818
  O      296.314     175.349    -128.597
  O      297.452     177.256    -127.409
  O      296.866     175.182    -126.033
  H      296.957     177.644    -126.662
  H      296.118     175.427    -130.627
  H      297.573     176.228    -130.005
  H      295.976     176.990    -129.788
  H      305.440     179.766    -125.087
  H      304.633     179.490    -123.562
  H      303.777     180.261    -124.876

 3  4  5  6  7  8  9  10  11  12  23  26  30  31 0
 6-311+G(2d,p)
 ****
 33  35  36  37  38 0
 6-311+G(2d,p)
 ****
 1  2  13  14  15  16  17  18  19  20  21  22  24  25 0
 3-21G
 ****
 27  28  29  32  34  39  40  41  42  43  44  45  46  47  48  49 0
 3-21G
 ****


