%nproc=1
%NoSave
%Mem=1900MB
#P OB98/GEN NMR

erre ene a

0 1
  C       53.175     434.726      32.212
  O       53.224     433.364      31.842
  H       53.632     434.836      33.199
  H       52.138     435.073      32.262
  H       53.734     435.331      31.491
  P       52.495     432.970      30.462
  C       54.498     431.382      29.939
  O       53.096     431.517      30.122
  C       54.909     429.921      30.108
  O       54.782     429.518      31.492
  C       54.054     428.930      29.321
  O       54.383     428.878      27.944
  C       54.426     427.642      30.036
  O       55.745     427.231      29.637
  C       54.408     428.110      31.507
  N       53.102     427.932      32.148
  C       52.763     426.628      32.534
  O       53.535     425.693      32.332
  N       51.533     426.409      33.107
  C       50.722     427.401      33.308
  N       49.517     427.118      33.878
  C       51.041     428.789      32.931
  C       52.233     428.982      32.366
  O       53.215     433.908      29.384
  O       51.006     433.051      30.461
  H       55.751     427.220      28.662
  H       52.943     433.641      28.472
  H       50.330     429.585      33.105
  H       52.540     429.978      32.064
  H       55.163     427.576      32.102
  H       53.755     426.815      29.814
  H       52.984     429.116      29.461
  H       55.968     429.837      29.838
  H       49.306     426.148      34.070
  H       55.006     432.006      30.684
  H       48.764     427.795      33.935
  H       54.781     431.722      28.937
  P       53.438     429.688      26.928
  C       55.529     430.065      25.421
  O       54.160     429.671      25.498
  O       53.597     431.203      27.409
  O       52.006     429.248      26.922
  H       52.763     431.697      27.289
  H       55.862     430.000      24.406
  H       56.121     429.418      26.033
  H       55.630     431.073      25.766

 6  7  8  9  10  11  12  13  14  15  16  26  30  31  32  33  35 0
 6-311+G(2d,p)
 ****
 37  38 0
 6-311+G(2d,p)
 ****
 1  2  3  4  5  17  18  19  20  21  22  23  24  25 0
 3-21G
 ****
 27  28  29  34  36  39  40  41  42  43  44  45  46 0
 3-21G
 ****


