%nproc=1
%NoSave
%Mem=1900MB
#P OB98/GEN NMR

erre ene a

0 1
  C        8.900    -277.911     -48.136
  O        8.316    -276.897     -47.311
  P        8.369    -275.399     -47.890
  C       10.101    -274.721     -46.080
  O        9.779    -274.752     -47.465
  C       11.106    -273.603     -45.764
  O       12.425    -273.920     -46.294
  C       10.711    -272.235     -46.345
  O       11.154    -271.237     -45.414
  C       11.559    -272.150     -47.599
  O       11.681    -270.807     -48.063
  C       12.852    -272.792     -47.093
  N       16.446    -271.251     -50.287
  C       15.671    -270.521     -49.409
  N       15.919    -269.196     -49.335
  N       14.726    -271.048     -48.665
  C       14.621    -272.399     -48.820
  C       15.341    -273.229     -49.646
  C       16.354    -272.623     -50.488
  O       17.075    -273.225     -51.279
  N       14.952    -274.547     -49.499
  C       13.955    -274.482     -48.629
  N       13.748    -273.215     -48.151
  O        7.301    -274.620     -46.984
  O        8.037    -275.303     -49.346
  H       12.361    -270.364     -47.517
  H        6.460    -274.513     -47.467
  H       17.147    -270.787     -50.850
  H       13.369    -275.328     -48.299
  H       13.428    -272.114     -46.451
  H       11.114    -272.750     -48.406
  H       16.661    -268.733     -49.837
  H        9.643    -272.118     -46.550
  H       15.392    -268.641     -48.659
  H       11.199    -273.524     -44.669
  H       10.529    -275.680     -45.772
  H        9.179    -274.597     -45.503
  P       10.096    -270.684     -44.344
  C        8.971    -269.203     -46.152
  O        8.806    -270.202     -45.167
  O       10.759    -269.310     -43.855
  O        9.838    -271.596     -43.185
  H       10.608    -269.196     -42.896
  H        8.183    -269.314     -46.901
  H        9.943    -269.282     -46.651
  H        8.882    -268.213     -45.689
  H        8.807    -278.861     -47.653
  H        9.935    -277.690     -48.293
  H        8.394    -277.939     -49.078

 3  4  5  6  7  8  9  10  11  12  23  26  30  31 0
 6-311+G(2d,p)
 ****
 33  35  36  37  38 0
 6-311+G(2d,p)
 ****
 1  2  13  14  15  16  17  18  19  20  21  22  24  25 0
 3-21G
 ****
 27  28  29  32  34  39  40  41  42  43  44  45  46  47  48  49 0
 3-21G
 ****


