%nproc=1
%NoSave
%Mem=1900MB
#P OB98/GEN NMR

erre ene a

0 1
  C      413.386    -898.520     389.592
  O      413.768    -898.080     388.306
  H      412.381    -898.150     389.799
  H      414.072    -898.120     390.346
  H      413.375    -899.620     389.642
  P      415.147    -898.620     387.684
  C      416.213    -898.760     385.334
  O      415.074    -898.380     386.100
  C      415.924    -898.570     383.848
  O      414.910    -899.500     383.401
  C      415.381    -897.190     383.503
  O      416.414    -896.220     383.505
  C      414.764    -897.450     382.139
  O      415.764    -897.450     381.107
  C      414.174    -898.870     382.331
  N      412.739    -898.850     382.616
  C      411.897    -898.660     381.526
  O      412.307    -898.470     380.384
  N      410.553    -898.670     381.805
  C      409.992    -898.720     383.051
  O      408.785    -898.630     383.250
  C      410.938    -898.900     384.162
  C      412.235    -898.960     383.899
  O      415.550    -900.000     388.091
  O      416.223    -897.530     388.163
  H      415.985    -896.510     380.944
  H      416.759    -897.900     388.891
  H      409.923    -898.510     381.032
  H      410.528    -898.970     385.162
  H      412.947    -899.090     384.708
  H      414.340    -899.470     381.438
  H      414.019    -896.700     381.874
  H      414.590    -896.900     384.204
  H      416.846    -898.780     383.289
  H      416.418    -899.830     385.531
  H      417.077    -898.170     385.648
  P      416.063    -894.670     383.273
  C      416.491    -892.440     384.473
  O      416.809    -893.830     384.415
  O      414.612    -894.360     383.112
  O      416.879    -894.280     381.952
  H      416.248    -894.000     381.265
  H      417.042    -891.981     385.267
  H      415.443    -892.321     384.652
  H      416.749    -891.976     383.544

 6  7  8  9  10  11  12  13  14  15  16  26  31  32  33  34  35 0
 6-311+G(2d,p)
 ****
 36  37 0
 6-311+G(2d,p)
 ****
 1  2  3  4  5  17  18  19  20  21  22  23  24  25 0
 3-21G
 ****
 27  28  29  30  38  39  40  41  42  43  44  45 0
 3-21G
 ****


