%nproc=1
%NoSave
%Mem=1900MB
#P OB98/GEN NMR

erre ene a

0 1
  C     -977.265     105.392     311.336
  O     -977.391     106.757     310.989
  H     -976.281     105.231     311.777
  H     -977.362     104.771     310.441
  H     -978.033     105.116     312.068
  P     -978.786     107.203     310.336
  C     -979.582     108.527     312.442
  O     -979.203     108.569     311.075
  C     -979.371     109.899     313.099
  O     -977.949     110.196     313.104
  C     -980.064     111.056     312.358
  O     -980.385     112.071     313.320
  C     -978.951     111.544     311.447
  O     -979.266     112.814     310.904
  C     -977.779     111.463     312.414
  N     -973.242     113.816     312.319
  C     -974.306     113.956     313.131
  N     -975.472     113.285     313.107
  C     -975.475     112.373     312.117
  C     -974.462     112.109     311.218
  C     -973.293     112.882     311.341
  N     -972.206     112.756     310.501
  N     -974.829     111.098     310.343
  C     -976.049     110.758     310.720
  N     -976.479     111.503     311.779
  O     -979.824     106.130     310.912
  O     -978.808     107.265     308.848
  H     -980.026     112.753     310.289
  H     -979.942     105.405     310.268
  H     -974.208     114.709     313.917
  H     -976.659     109.990     310.250
  H     -977.809     112.258     313.168
  H     -978.810     110.868     310.600
  H     -980.976     110.747     311.827
  H     -979.693     109.845     314.147
  H     -978.957     107.772     312.950
  H     -980.634     108.237     312.523
  H     -971.414     113.358     310.640
  H     -972.239     112.074     309.754
  P     -981.886     112.654     313.370
  C     -982.430     111.884     315.816
  O     -982.263     112.961     314.903
  O     -982.763     111.346     313.072
  O     -982.194     113.737     312.396
  H     -983.602     111.602     312.653
  H     -982.677     112.271     316.783
  H     -981.520     111.324     315.877
  H     -983.219     111.247     315.475

 6  7  8  9  10  11  12  13  14  15  25  28  32  33  34  35 0
 6-311+G(2d,p)
 ****
 36  37  40 0
 6-311+G(2d,p)
 ****
 1  2  3  4  5  16  17  18  19  20  21  22  23  24 0
 3-21G
 ****
 26  27  29  30  31  38  39 41  42  43  44  45  46  47  48 0
 3-21G
 ****


