%nproc=1
%NoSave
%Mem=1900MB
#P OB98/GEN NMR

erre ene a

0 1
  C      331.395     362.251     319.034
  O      332.454     361.367     319.343
  H      331.810     363.135     318.547
  H      330.878     362.561     319.946
  H      330.691     361.767     318.351
  P      332.061     360.019     320.121
  C      332.348     360.661     322.602
  O      331.441     360.527     321.512
  C      331.597     361.048     323.875
  O      330.670     359.980     324.206
  C      332.514     361.256     325.085
  O      331.987     362.310     325.894
  C      332.391     359.944     325.842
  O      332.719     360.078     327.222
  C      330.934     359.576     325.561
  N      329.484     356.018     328.901
  C      329.462     357.365     328.949
  N      329.848     358.242     327.996
  C      330.241     357.591     326.888
  C      330.319     356.226     326.688
  C      329.926     355.416     327.771
  N      329.979     354.043     327.745
  N      330.816     355.949     325.430
  C      331.023     357.128     324.875
  N      330.708     358.149     325.726
  O      333.147     359.005     320.242
  O      330.761     359.540     319.317
  H      332.081     360.697     327.633
  H      330.142     360.279     319.169
  H      329.091     357.801     329.874
  H      331.410     357.296     323.873
  H      330.233     360.097     326.224
  H      333.067     359.199     325.406
  H      333.545     361.475     324.813
  H      330.996     361.941     323.673
  H      333.098     361.427     322.372
  H      329.673     353.540     328.564
  H      330.297     353.574     326.910
  H      332.856     359.702     322.734
  P      332.621     363.777     325.764
  C      334.415     363.638     327.611
  O      334.164     363.715     326.214
  O      331.832     364.881     326.384
  O      332.735     363.973     324.178
  H      332.466     364.884     323.947
  H      335.471     363.602     327.782
  H      333.959     362.755     328.007
  H      334.004     364.499     328.095

 6  7  8  9  10  11  12  13  14  15  25  28  32  33  34  35 0
 6-311+G(2d,p)
 ****
 36  39  40 0
 6-311+G(2d,p)
 ****
 1  2  3  4  5  16  17  18  19  20  21  22  23  24 0
 3-21G
 ****
 26  27  29  30  31  37  38  41  42  43  44  45  46  47 0
 3-21G
 ****
 48 0
 3-21G
 ****


