%nproc=1
%NoSave
%Mem=1900MB
#P OB98/GEN NMR

erre ene a

0 1
  C      260.310     286.372    -357.998
  O      259.875     287.177    -359.073
  H      259.469     285.814    -357.579
  H      261.054     285.660    -358.368
  H      260.770     286.990    -357.223
  P      258.746     288.270    -358.748
  C      259.964     290.546    -358.505
  O      259.251     289.666    -359.364
  C      259.995     291.949    -359.107
  O      260.736     292.813    -358.212
  C      260.644     292.035    -360.500
  O      259.720     292.584    -361.445
  C      261.792     293.018    -360.322
  O      261.939     293.913    -361.423
  C      261.430     293.755    -359.040
  N      263.292     297.633    -356.307
  C      262.023     297.215    -356.510
  N      261.600     296.111    -357.165
  C      262.646     295.390    -357.605
  C      263.992     295.676    -357.449
  C      264.305     296.871    -356.777
  N      265.594     297.328    -356.616
  N      264.772     294.703    -358.048
  C      263.911     293.867    -358.592
  N      262.615     294.252    -358.369
  O      258.890     288.486    -357.167
  O      257.358     287.877    -359.127
  H      262.152     293.365    -362.204
  H      258.009     288.444    -356.749
  H      261.245     297.854    -356.110
  H      264.166     293.005    -359.192
  H      260.760     294.605    -359.227
  H      262.726     292.454    -360.208
  H      261.007     291.065    -360.856
  H      258.965     292.328    -359.144
  H      260.992     290.188    -358.386
  H      265.719     298.248    -356.228
  H      266.345     296.818    -357.060
  H      259.481     290.554    -357.524
  P      259.125     291.573    -362.546
  C      257.006     290.805    -361.243
  O      257.534     291.529    -362.349
  O      259.603     290.139    -362.010
  O      259.604     291.839    -363.934
  H      259.684     289.514    -362.754
  H      255.938     290.871    -361.251
  H      257.382     291.221    -360.332
  H      257.301     289.779    -361.315

 6  7  8  9  10  11  12  13  14  15  25  28  32  33  34  35 0
 6-311+G(2d,p)
 ****
 36  39  40 0
 6-311+G(2d,p)
 ****
 1  2  3  4  5  16  17  18  19  20  21  22  23  24 0
 3-21G
 ****
 26  27  29  30  31  37  38  41  42  43  44  45  46  47  48 0
 3-21G
 ****


