%nproc=1
%NoSave
%Mem=1900MB
#P OB98/GEN NMR

erre ene a

0 1
  C      340.960     -84.578      72.887
  O      340.359     -83.841      71.819
  P      339.122     -84.535      71.072
  C      337.036     -83.366      72.089
  O      337.928     -83.468      70.986
  C      335.589     -83.437      71.602
  O      334.664     -83.599      72.699
  C      335.133     -82.175      70.877
  O      335.680     -82.114      69.570
  C      333.619     -82.350      70.925
  O      333.186     -83.270      69.907
  C      333.413     -82.981      72.312
  N      332.101     -82.382      77.223
  C      332.442     -83.474      76.506
  N      332.775     -83.552      75.201
  C      332.748     -82.336      74.630
  C      332.425     -81.132      75.234
  C      332.085     -81.182      76.597
  N      331.724     -80.070      77.325
  N      332.504     -80.095      74.327
  C      332.846     -80.669      73.191
  N      333.017     -82.020      73.327
  O      338.599     -85.606      72.139
  O      339.489     -85.181      69.775
  H      332.211     -83.325      69.960
  H      338.822     -86.508      71.842
  H      332.446     -84.415      77.052
  H      332.981     -80.149      72.249
  H      332.650     -83.768      72.301
  H      333.074     -81.414      70.774
  H      335.427     -81.285      71.448
  H      335.495     -84.304      70.935
  H      337.203     -82.427      72.623
  H      331.418     -80.203      78.275
  H      331.623     -79.185      76.847
  H      337.256     -84.173      72.795
  P      336.080     -80.670      68.998
  C      338.569     -80.748      69.633
  O      337.624     -80.843      68.582
  O      336.173     -79.806      70.337
  O      335.179     -80.141      67.936
  H      336.662     -80.273      71.037
  H      339.568     -80.916      69.222
  H      338.365     -81.505      70.395
  H      338.534     -79.749      70.078
  H      341.768     -84.012      73.301
  H      341.332     -85.509      72.513
  H      340.230     -84.765      73.646

 3  4  5  6  7  8  9  10  11  12  22  25  29  30  31  32 0
 6-311+G(2d,p)
 ****
 33  36  37 0
 6-311+G(2d,p)
 ****
 1  2  13  14  15  16  17  18  19  20  21  23  24  26 0
 3-21G
 ****
 27  28  34  35  38  39  40  41  42  43  44  45  46  47  48 0
 3-21G
 ****


