%nproc=1
%NoSave
%Mem=1900MB
#P OB98/GEN NMR

erre ene a

0 1
  C      375.485    -328.449    -248.312
  O      375.521    -329.687    -247.625
  P      374.996    -330.987    -248.403
  C      372.583    -331.669    -249.202
  O      373.398    -330.942    -248.294
  C      371.479    -330.766    -249.765
  O      372.075    -329.653    -250.469
  C      370.564    -331.441    -250.774
  O      369.607    -332.281    -250.145
  C      369.971    -330.229    -251.490
  O      368.903    -329.662    -250.707
  C      371.175    -329.264    -251.527
  N      371.851    -329.244    -252.819
  C      371.167    -328.631    -253.862
  O      370.053    -328.127    -253.732
  N      371.802    -328.632    -255.081
  C      373.005    -329.231    -255.358
  O      373.507    -329.237    -256.473
  C      373.661    -329.884    -254.223
  C      373.068    -329.864    -253.028
  O      375.441    -332.140    -247.382
  O      375.549    -331.116    -249.782
  H      375.487    -331.812    -246.469
  H      368.571    -328.889    -251.211
  H      371.333    -328.175    -255.847
  H      374.609    -330.382    -254.407
  H      373.538    -330.355    -252.181
  H      370.841    -328.243    -251.291
  H      369.558    -330.482    -252.469
  H      371.156    -332.029    -251.484
  H      370.900    -330.366    -248.923
  H      372.125    -332.514    -248.670
  H      373.207    -332.065    -250.009
  P      369.046    -333.517    -251.016
  C      367.767    -333.624    -253.287
  O      368.117    -332.873    -252.149
  O      368.017    -334.181    -249.986
  O      370.114    -334.438    -251.504
  H      367.486    -333.518    -249.500
  H      366.873    -333.179    -253.744
  H      367.544    -334.668    -253.030
  H      368.584    -333.596    -254.015
  H      375.863    -327.677    -247.675
  H      374.476    -328.223    -248.587
  H      376.089    -328.512    -249.193

 3  4  5  6  7  8  9  10  11  12  13  24  28  29  30  31  32 0
 6-311+G(2d,p)
 ****
 33  34 0
 6-311+G(2d,p)
 ****
 1  2  14  15  16  17  18  19  20  21  22  23  25  26  27 0
 3-21G
 ****
 35  36  37  38  39  40  41  42  43  44  45 0
 3-21G
 ****


