%nproc=1
%NoSave
%Mem=1900MB
#P OB98/GEN NMR

erre ene a

0 1
  C     -327.231    -304.344    -311.925
  O     -328.495    -304.941    -312.145
  H     -326.822    -304.724    -310.989
  H     -327.343    -303.261    -311.846
  H     -326.546    -304.592    -312.740
  P     -329.237    -304.582    -313.522
  C     -328.969    -306.910    -314.634
  O     -328.598    -305.540    -314.642
  C     -328.008    -307.741    -315.478
  O     -326.640    -307.465    -315.047
  C     -328.227    -309.257    -315.382
  O     -327.937    -309.831    -316.659
  C     -327.138    -309.693    -314.409
  O     -326.822    -311.078    -314.528
  C     -326.013    -308.745    -314.825
  N     -321.032    -308.905    -314.131
  C     -321.778    -308.974    -315.288
  N     -321.092    -309.099    -316.447
  N     -323.079    -308.917    -315.314
  C     -323.636    -308.753    -314.089
  C     -323.010    -308.675    -312.865
  C     -321.564    -308.765    -312.849
  O     -320.853    -308.730    -311.853
  N     -323.924    -308.541    -311.851
  C     -325.097    -308.530    -312.460
  N     -324.976    -308.654    -313.816
  O     -328.641    -303.139    -313.875
  O     -330.729    -304.572    -313.463
  H     -327.558    -311.586    -314.129
  H     -329.228    -302.437    -313.532
  H     -320.029    -308.966    -314.164
  H     -326.059    -308.439    -311.965
  H     -325.526    -309.052    -315.753
  H     -327.457    -309.502    -313.374
  H     -320.087    -309.103    -316.504
  H     -329.231    -309.552    -315.062
  H     -321.624    -309.112    -317.313
  H     -328.083    -307.401    -316.522
  H     -329.984    -307.004    -315.042
  H     -328.971    -307.274    -313.602
  P     -329.108    -309.868    -317.751
  C     -328.033    -308.243    -319.472
  O     -329.087    -308.482    -318.553
  O     -330.431    -309.739    -316.856
  O     -329.133    -311.109    -318.590
  H     -331.182    -310.167    -317.307
  H     -328.163    -307.281    -319.921
  H     -328.045    -308.996    -320.232
  H     -327.096    -308.272    -318.956

 6  7  8  9  10  11  12  13  14  15  26  29  33  34 0
 6-311+G(2d,p)
 ****
 36  38  39  40  41 0
 6-311+G(2d,p)
 ****
 1  2  3  4  5  16  17  18  19  20  21  22  23  24  25 0
 3-21G
 ****
 27  28  30  31  32  35  37  42  43  44  45  46  47 0
 3-21G
 ****
 48  49 0
 3-21G
 ****


