%nproc=1
%NoSave
%Mem=1900MB
#P OB98/GEN NMR

erre ene a

0 1
  C     -563.053      40.775     -95.490
  O     -563.497      41.971     -96.106
  H     -563.676      39.944     -95.837
  H     -563.149      40.854     -94.403
  H     -562.010      40.576     -95.757
  P     -562.776      43.328     -95.636
  C     -565.112      44.089     -94.752
  O     -563.736      43.875     -94.465
  C     -565.826      44.618     -93.510
  O     -566.131      43.542     -92.600
  C     -565.012      45.618     -92.693
  O     -564.986      46.923     -93.254
  C     -565.795      45.585     -91.386
  O     -567.022      46.318     -91.541
  C     -566.049      44.066     -91.247
  N     -565.004      43.373     -90.481
  C     -565.014      43.551     -89.094
  O     -565.864      44.265     -88.553
  N     -564.036      42.949     -88.341
  C     -563.145      42.210     -88.919
  N     -562.190      41.641     -88.120
  C     -563.098      41.980     -90.380
  C     -564.048      42.586     -91.089
  O     -563.079      44.344     -96.836
  O     -561.336      43.213     -95.267
  H     -567.400      46.420     -90.651
  H     -562.806      45.261     -96.582
  H     -562.326      41.369     -90.817
  H     -564.082      42.464     -92.166
  H     -567.019      43.879     -90.766
  H     -565.255      46.036     -90.556
  H     -563.995      45.251     -92.507
  H     -566.780      45.054     -93.836
  H     -562.208      41.859     -87.135
  H     -565.555      43.133     -95.058
  H     -561.372      41.176     -88.490
  H     -565.218      44.812     -95.567
  P     -564.001      47.994     -92.585
  C     -565.995      49.664     -92.373
  O     -564.914      48.995     -91.727
  O     -563.530      48.887     -93.825
  O     -562.830      47.404     -91.851
  H     -562.608      49.197     -93.710
  H     -566.500      50.290     -91.667
  H     -566.680      48.941     -92.763
  H     -565.616      50.264     -93.174

 6  7  8  9  10  11  12  13  14  15  16  26  30  31  32  33  35 0
 6-311+G(2d,p)
 ****
 37  38 0
 6-311+G(2d,p)
 ****
 1  2  3  4  5  17  18  19  20  21  22  23  24  25 0
 3-21G
 ****
 27  28  29  34  36  39  40  41  42  43  44  45  46 0
 3-21G
 ****


