%nproc=1
%NoSave
%Mem=1900MB
#P OB98/GEN NMR

erre ene a

0 1
  C        1.826    -758.960     -88.336
  O        1.022    -758.996     -87.168
  P        0.204    -760.324     -86.779
  C       -1.914    -758.868     -86.813
  O       -1.135    -759.789     -86.063
  C       -2.794    -758.040     -85.863
  O       -3.770    -758.927     -85.266
  C       -2.074    -757.369     -84.693
  O       -1.478    -756.119     -84.996
  C       -3.247    -757.154     -83.736
  O       -3.993    -755.991     -84.143
  C       -4.063    -758.424     -83.932
  N       -5.259    -760.296     -79.319
  C       -5.771    -759.278     -80.043
  N       -5.384    -758.831     -81.255
  C       -4.385    -759.589     -81.752
  C       -3.759    -760.661     -81.131
  C       -4.239    -761.017     -79.851
  N       -3.733    -762.071     -79.128
  N       -2.762    -761.169     -81.934
  C       -2.791    -760.415     -83.021
  N       -3.761    -759.454     -82.954
  O        0.992    -761.337     -86.016
  O       -0.338    -760.877     -88.174
  H       -3.489    -755.200     -83.870
  H       -0.611    -761.816     -88.077
  H       -6.602    -758.750     -79.581
  H       -2.134    -760.533     -83.868
  H       -5.152    -758.227     -83.895
  H       -2.920    -756.964     -82.702
  H       -1.350    -758.060     -84.225
  H       -3.332    -757.293     -86.466
  H       -2.552    -759.429     -87.496
  H       -4.217    -762.339     -78.297
  H       -3.089    -762.703     -79.599
  H       -1.261    -758.212     -87.403
  P        0.057    -755.915     -84.543
  C       -0.518    -753.369     -84.264
  O        0.372    -754.349     -84.765
  O        1.027    -756.859     -85.170
  O       -0.025    -756.048     -82.949
  H       -0.509    -755.346     -82.494
  H       -0.048    -752.387     -84.373
  H       -0.722    -753.536     -83.194
  H       -1.451    -753.380     -84.816
  H        2.287    -757.998     -88.422
  H        1.215    -759.141     -89.195
  H        2.583    -759.713     -88.271

 3  4  5  6  7  8  9  10  11  12  22  25  29  30  31  32 0
 6-311+G(2d,p)
 ****
 33  36  37 0
 6-311+G(2d,p)
 ****
 1  2  13  14  15  16  17  18  19  20  21  23  24  26 0
 3-21G
 ****
 27  28  34  35  38  39  40  41  42  43  44  45  46  47  48 0
 3-21G
 ****


