%nproc=1
%NoSave
%Mem=1900MB
#P OB98/GEN NMR

erre ene a

0 1
  C      583.539     291.762     323.653
  O      584.942     291.767     323.864
  P      585.648     293.181     324.142
  C      587.498     292.920     322.340
  O      587.189     293.029     323.723
  C      588.929     292.417     322.139
  O      589.851     293.390     322.701
  C      589.229     291.064     322.806
  O      590.155     290.384     321.953
  C      589.889     291.489     324.106
  O      590.612     290.459     324.751
  C      590.713     292.680     323.617
  N      594.155     293.313     327.342
  C      594.033     292.368     326.381
  N      593.088     292.270     325.418
  C      592.221     293.291     325.501
  C      592.207     294.313     326.434
  C      593.237     294.304     327.391
  N      593.354     295.263     328.375
  N      591.143     295.163     326.216
  C      590.519     294.657     325.172
  N      591.144     293.541     324.691
  O      585.708     293.245     325.739
  O      584.939     294.366     323.561
  H      591.130     290.825     325.496
  H      585.530     294.149     326.064
  H      594.786     291.589     326.388
  H      589.610     295.053     324.733
  H      591.603     292.357     323.063
  H      589.113     291.819     324.806
  H      588.339     290.441     322.941
  H      589.128     292.358     321.062
  H      587.410     293.903     321.871
  H      593.997     295.059     329.123
  H      592.559     295.870     328.525
  H      586.776     292.251     321.859
  P      590.243     288.783     322.023
  C      592.666     288.979     322.853
  O      591.812     288.472     321.847
  O      589.673     288.383     320.581
  O      589.542     288.141     323.171
  H      590.121     288.876     319.869
  H      593.683     288.617     322.663
  H      592.346     288.635     323.839
  H      592.676     290.074     322.819
  H      583.208     290.759     323.481
  H      583.304     292.366     322.802
  H      583.047     292.157     324.517

 3  4  5  6  7  8  9  10  11  12  22  25  29  30  31  32 0
 6-311+G(2d,p)
 ****
 33  36  37 0
 6-311+G(2d,p)
 ****
 1  2  13  14  15  16  17  18  19  20  21  23  24  26 0
 3-21G
 ****
 27  28  34  35  38  39  40  41  42  43  44  45  46  47  48 0
 3-21G
 ****


