%nproc=1
%NoSave
%Mem=1900MB
#P OB98/GEN NMR

erre ene a

0 1
  C     -199.731     411.608     244.754
  O     -199.293     412.958     244.536
  P     -200.295     414.146     244.920
  C     -201.091     414.877     242.553
  O     -201.423     414.253     243.788
  C     -202.296     414.879     241.607
  O     -203.499     415.314     242.274
  C     -202.138     415.808     240.411
  O     -201.374     415.198     239.379
  C     -203.584     415.971     239.971
  O     -203.996     414.822     239.207
  C     -204.327     416.008     241.313
  N     -207.687     419.880     241.362
  C     -207.704     418.674     240.749
  N     -206.767     417.705     240.768
  C     -205.724     418.071     241.529
  C     -205.564     419.264     242.221
  C     -206.606     420.199     242.115
  N     -206.581     421.421     242.746
  N     -204.356     419.285     242.890
  C     -203.802     418.115     242.623
  N     -204.589     417.351     241.802
  O     -199.409     415.460     244.687
  O     -200.807     414.077     246.327
  H     -204.972     414.831     239.180
  H     -199.649     416.142     245.344
  H     -208.596     418.461     240.165
  H     -202.848     417.780     243.000
  H     -205.295     415.485     241.268
  H     -203.734     416.851     239.336
  H     -201.722     416.777     240.719
  H     -202.451     413.849     241.260
  H     -200.248     414.358     242.088
  H     -207.378     422.030     242.648
  H     -205.789     421.656     243.331
  H     -200.746     415.899     242.752
  P     -199.868     415.718     239.178
  C     -200.429     417.263     237.162
  O     -199.992     417.168     238.507
  O     -199.323     414.785     237.996
  O     -199.018     415.626     240.402
  H     -198.362     414.650     238.090
  H     -200.748     418.292     236.970
  H     -201.276     416.595     236.976
  H     -199.604     417.010     236.491
  H     -198.960     410.930     244.452
  H     -200.614     411.422     244.179
  H     -199.945     411.466     245.793

 3  4  5  6  7  8  9  10  11  12  22  25  29  30  31  32 0
 6-311+G(2d,p)
 ****
 33  36  37 0
 6-311+G(2d,p)
 ****
 1  2  13  14  15  16  17  18  19  20  21  23  24  26 0
 3-21G
 ****
 27  28  34  35  38  39  40  41  42  43  44  45  46  47  48 0
 3-21G
 ****


