%nproc=1
%NoSave
%Mem=1900MB
#P OB98/GEN NMR

erre ene a

0 1
  C      -91.755     573.706      33.514
  O      -91.057     573.813      34.760
  P      -91.492     575.016      35.728
  C      -89.344     576.474      35.775
  O      -90.174     575.553      36.477
  C      -87.995     576.629      36.487
  O      -87.076     575.580      36.139
  C      -87.283     577.937      36.150
  O      -87.840     578.997      36.918
  C      -85.848     577.619      36.534
  O      -85.619     577.807      37.953
  C      -85.719     576.127      36.175
  N      -81.252     575.506      33.855
  C      -81.538     575.923      35.154
  N      -80.469     576.186      35.948
  N      -82.737     576.065      35.629
  C      -83.713     575.758      34.716
  C      -83.553     575.304      33.419
  C      -82.206     575.163      32.910
  O      -81.904     574.773      31.796
  N      -84.765     575.046      32.830
  C      -85.651     575.459      33.721
  N      -85.062     575.847      34.909
  O      -92.326     574.285      36.885
  O      -92.301     576.065      35.034
  H      -84.735     577.478      38.187
  H      -93.272     574.525      36.803
  H      -80.297     575.419      33.554
  H      -86.721     575.473      33.582
  H      -85.176     575.566      36.934
  H      -85.134     578.256      36.022
  H      -79.505     576.103      35.645
  H      -87.358     578.148      35.069
  H      -80.654     576.486      36.895
  H      -88.197     576.573      37.572
  H      -89.836     577.449      35.713
  H      -89.208     576.124      34.745
  P      -87.941     580.446      36.234
  C      -86.824     581.619      38.267
  O      -87.950     581.530      37.391
  O      -89.439     580.481      35.662
  O      -86.946     580.676      35.138
  H      -89.446     580.838      34.760
  H      -86.717     582.639      38.617
  H      -85.904     581.306      37.764
  H      -86.993     580.966      39.135
  H      -91.376     572.871      32.963
  H      -91.612     574.602      32.947
  H      -92.799     573.566      33.701

 3  4  5  6  7  8  9  10  11  12  23  26  30  31 0
 6-311+G(2d,p)
 ****
 33  35  36  37  38 0
 6-311+G(2d,p)
 ****
 1  2  13  14  15  16  17  18  19  20  21  22  24  25 0
 3-21G
 ****
 27  28  29  32  34  39  40  41  42  43  44  45  46  47  48  49 0
 3-21G
 ****


