%nproc=1
%NoSave
%Mem=1900MB
#P OB98/GEN NMR

erre ene a

0 1
  C      -12.105       7.593     -61.837
  O      -13.500       7.770     -61.678
  H      -11.657       7.448     -60.851
  H      -11.661       8.478     -62.300
  H      -11.908       6.709     -62.447
  P      -14.347       8.036     -63.014
  C      -14.086       9.834     -64.858
  O      -13.891       9.498     -63.491
  C      -14.382      11.324     -65.006
  O      -15.624      11.652     -64.359
  C      -13.327      12.237     -64.393
  O      -12.247      12.422     -65.294
  C      -14.125      13.519     -64.212
  O      -14.187      14.231     -65.463
  C      -15.523      13.001     -63.835
  N      -16.972      15.757     -59.755
  C      -16.605      16.126     -61.000
  N      -16.179      15.346     -62.017
  C      -16.161      14.054     -61.651
  C      -16.506      13.529     -60.415
  C      -16.934      14.443     -59.438
  N      -17.307      14.063     -58.167
  N      -16.359      12.158     -60.404
  C      -15.989      11.856     -61.632
  N      -15.820      12.970     -62.414
  O      -15.816       7.807     -62.905
  O      -13.586       7.083     -64.052
  H      -14.102      13.565     -66.171
  H      -12.624       7.127     -63.914
  H      -16.656      17.191     -61.208
  H      -15.851      10.849     -62.010
  H      -16.315      13.594     -64.305
  H      -13.673      14.195     -63.484
  H      -12.997      11.877     -63.413
  H      -14.507      11.538     -66.076
  H      -14.914       9.250     -65.276
  H      -17.412      14.792     -57.480
  H      -17.153      13.102     -57.897
  H      -13.171       9.572     -65.398
  P      -10.731      12.469     -64.772
  C       -9.278      14.237     -63.601
  O      -10.538      13.953     -64.196
  O       -9.720      12.022     -65.768
  O      -10.742      11.570     -63.450
  H       -9.829      11.322     -63.209
  H       -9.267      15.250     -63.256
  H       -8.502      14.098     -64.325
  H       -9.117      13.577     -62.775

 6  7  8  9  10  11  12  13  14  15  25  28  32  33  34  35 0
 6-311+G(2d,p)
 ****
 36  39  40 0
 6-311+G(2d,p)
 ****
 1  2  3  4  5  16  17  18  19  20  21  22  23  24 0
 3-21G
 ****
 26  27  29  30  31  37  38  41  42  43  44  45  46  47 0
 3-21G
 ****
 48 0
 3-21G
 ****


