%nproc=1
%NoSave
%Mem=1900MB
#P OB98/GEN NMR

erre ene a

0 1
  C     -369.881     307.583     -44.246
  O     -369.596     307.325     -42.883
  H     -370.220     306.663     -44.744
  H     -370.676     308.331     -44.312
  H     -368.979     307.965     -44.752
  P     -368.527     306.168     -42.585
  C     -368.455     303.607     -43.003
  O     -369.261     304.776     -42.932
  C     -369.275     302.375     -42.672
  O     -370.550     302.406     -43.370
  C     -368.646     301.046     -43.066
  O     -367.653     300.639     -42.139
  C     -369.851     300.134     -43.031
  O     -370.129     299.739     -41.675
  C     -370.980     301.037     -43.548
  N     -372.533     297.638     -47.087
  C     -372.298     297.525     -45.752
  N     -371.874     298.465     -44.882
  C     -371.711     299.641     -45.499
  C     -371.884     299.924     -46.849
  C     -372.319     298.848     -47.662
  N     -372.524     298.982     -49.023
  N     -371.620     301.243     -47.121
  C     -371.285     301.763     -45.961
  N     -371.303     300.829     -44.947
  O     -368.435     306.155     -40.981
  O     -367.186     306.359     -43.210
  H     -370.891     299.118     -41.708
  H     -367.523     305.945     -40.721
  H     -372.479     296.540     -45.341
  H     -371.014     302.804     -45.805
  H     -371.895     300.921     -42.960
  H     -369.726     299.219     -43.612
  H     -368.253     301.094     -44.093
  H     -369.500     302.385     -41.585
  H     -367.629     303.682     -42.284
  H     -373.018     298.243     -49.503
  H     -372.381     299.892     -49.449
  H     -368.039     303.528     -44.020
  P     -366.372     299.845     -42.722
  C     -365.905     297.334     -43.189
  O     -366.894     298.342     -42.983
  O     -365.427     299.693     -41.444
  O     -365.673     300.518     -43.870
  H     -364.499     299.596     -41.727
  H     -366.385     296.391     -43.349
  H     -365.275     297.271     -42.327
  H     -365.314     297.584     -44.045

 6  7  8  9  10  11  12  13  14  15  25  28  32  33  34  35 0
 6-311+G(2d,p)
 ****
 36  39  40 0
 6-311+G(2d,p)
 ****
 1  2  3  4  5  16  17  18  19  20  21  22  23  24 0
 3-21G
 ****
 26  27  29  30  31  37  38  41  42  43  44  45  46  47  48 0
 3-21G
 ****


