%nproc=1
%NoSave
%Mem=1900MB
#P OB98/GEN NMR

erre ene a

0 1
  C       23.556    -293.650     235.853
  O       23.878    -294.336     237.047
  P       23.350    -295.835     237.239
  C       25.715    -296.507     238.097
  O       24.308    -296.561     238.299
  C       26.424    -296.107     239.400
  O       26.002    -294.750     239.769
  C       26.126    -297.018     240.598
  O       27.312    -297.062     241.404
  C       25.041    -296.264     241.332
  O       24.890    -296.663     242.678
  C       25.537    -294.820     241.134
  N       24.505    -293.819     241.404
  C       24.432    -293.299     242.693
  O       25.188    -293.625     243.606
  N       23.420    -292.413     242.919
  C       22.427    -292.078     242.046
  O       21.472    -291.370     242.356
  C       22.537    -292.665     240.695
  C       23.552    -293.494     240.440
  O       23.726    -296.541     235.849
  O       21.896    -295.948     237.541
  H       24.688    -297.618     242.684
  H       22.943    -296.589     235.266
  H       23.360    -292.015     243.848
  H       21.785    -292.400     239.972
  H       23.658    -293.960     239.462
  H       26.398    -294.633     241.785
  H       24.080    -296.429     240.823
  H       25.821    -298.034     240.300
  H       27.504    -296.053     239.206
  H       25.940    -295.778     237.319
  H       26.078    -297.483     237.748
  P       27.705    -298.477     242.072
  C       30.254    -297.904     242.228
  O       29.054    -298.225     242.897
  O       28.192    -299.293     240.782
  O       26.581    -299.128     242.819
  H       28.753    -298.760     240.192
  H       30.068    -297.290     241.342
  H       30.767    -298.821     241.929
  H       30.906    -297.338     242.911
  H       23.980    -292.668     235.880
  H       22.493    -293.577     235.759
  H       23.952    -294.186     235.016

 3  4  5  6  7  8  9  10  11  12  13  23  28  29  30  31  32 0
 6-311+G(2d,p)
 ****
 33  34 0
 6-311+G(2d,p)
 ****
 1  2  14  15  16  17  18  19  20  21  22  24  25  26 0
 3-21G
 ****
 27  35  36  37  38  39  40  41  42  43  44  45 0
 3-21G
 ****


