%nproc=1
%NoSave
%Mem=1900MB
#P OB98/GEN NMR

erre ene a

0 1
  C      -35.605     867.522    -437.978
  O      -36.097     867.093    -436.729
  H      -35.114     868.490    -437.845
  H      -36.431     867.648    -438.681
  H      -34.878     866.817    -438.384
  P      -36.604     865.581    -436.570
  C      -35.067     865.536    -434.504
  O      -35.537     864.830    -435.640
  C      -34.869     864.594    -433.310
  O      -36.168     864.056    -432.914
  C      -33.956     863.406    -433.609
  O      -33.298     863.049    -432.389
  C      -34.949     862.325    -433.991
  O      -34.387     861.035    -433.925
  C      -36.082     862.619    -432.993
  N      -37.348     862.008    -433.386
  C      -37.425     860.622    -433.298
  O      -36.466     859.909    -432.942
  N      -38.610     860.054    -433.671
  C      -39.693     860.719    -434.176
  O      -40.716     860.147    -434.524
  C      -39.540     862.185    -434.282
  C      -38.394     862.746    -433.888
  O      -36.929     864.870    -437.851
  O      -37.884     865.686    -435.621
  H      -35.060     860.357    -434.153
  H      -38.522     864.979    -435.827
  H      -38.675     859.045    -433.607
  H      -40.374     862.747    -434.692
  H      -38.259     863.823    -433.954
  H      -35.822     862.241    -431.998
  H      -35.300     862.469    -435.017
  H      -33.225     863.599    -434.394
  H      -34.501     865.178    -432.452
  H      -35.821     866.302    -434.252
  H      -34.117     866.038    -434.738
  P      -31.924     862.198    -432.374
  C      -30.558     864.312    -431.832
  O      -30.706     863.184    -432.689
  O      -31.968     860.968    -433.229
  O      -31.696     861.821    -430.832
  H      -31.200     860.979    -430.766
  H      -29.713     864.889    -432.145
  H      -30.409     863.979    -430.826
  H      -31.440     864.915    -431.881

 6  7  8  9  10  11  12  13  14  15  16  26  31  32  33  34  35 0
 6-311+G(2d,p)
 ****
 36  37 0
 6-311+G(2d,p)
 ****
 1  2  3  4  5  17  18  19  20  21  22  23  24  25 0
 3-21G
 ****
 27  28  29  30  38  39  40  41  42  43  44  45 0
 3-21G
 ****


