%nproc=1
%NoSave
%Mem=1900MB
#P OB98/GEN NMR

erre ene a

0 1
  C      161.072    -194.044    -695.711
  O      159.922    -193.463    -695.119
  P      158.546    -193.549    -695.947
  C      157.511    -195.686    -694.872
  O      158.140    -195.103    -696.005
  C      155.984    -195.648    -695.042
  O      155.533    -194.283    -695.118
  C      155.476    -196.324    -696.304
  O      155.503    -197.737    -696.180
  C      154.082    -195.719    -696.395
  O      153.192    -196.388    -695.484
  C      154.325    -194.273    -695.924
  N      152.451    -190.117    -698.268
  C      152.020    -190.821    -697.199
  N      152.561    -191.927    -696.649
  C      153.670    -192.299    -697.314
  C      154.210    -191.692    -698.432
  C      153.561    -190.549    -698.916
  N      153.998    -189.837    -700.012
  N      155.339    -192.371    -698.853
  C      155.473    -193.364    -697.997
  N      154.501    -193.349    -697.037
  O      159.002    -193.231    -697.442
  O      157.471    -192.623    -695.471
  H      152.362    -195.880    -695.464
  H      158.304    -192.744    -697.927
  H      151.118    -190.450    -696.722
  H      156.264    -194.100    -698.025
  H      153.510    -193.886    -695.301
  H      153.639    -195.798    -697.398
  H      156.078    -196.019    -697.170
  H      155.539    -196.111    -694.150
  H      157.776    -195.123    -693.971
  H      153.393    -189.120    -700.377
  H      154.741    -190.239    -700.576
  H      157.865    -196.712    -694.755
  P      155.568    -198.596    -697.535
  C      157.206    -200.409    -696.734
  O      157.044    -199.232    -697.513
  O      155.708    -197.447    -698.639
  O      154.441    -199.561    -697.720
  H      156.389    -196.799    -698.406
  H      158.232    -200.770    -696.846
  H      156.518    -201.187    -697.074
  H      157.025    -200.187    -695.680
  H      161.911    -193.917    -695.060
  H      161.272    -193.566    -696.647
  H      160.901    -195.088    -695.873

 3  4  5  6  7  8  9  10  11  12  22  25  29  30  31  32 0
 6-311+G(2d,p)
 ****
 33  36  37 0
 6-311+G(2d,p)
 ****
 1  2  13  14  15  16  17  18  19  20  21  23  24  26 0
 3-21G
 ****
 27  28  34  35  38  39  40  41  42  43  44  45  46  47  48 0
 3-21G
 ****


