%nproc=1
%NoSave
%Mem=1900MB
#P OB98/GEN NMR

erre ene a

0 1
  C      415.381    -899.031     383.503
  O      416.414    -898.061     383.505
  P      416.063    -896.511     383.273
  C      416.491    -894.281     384.473
  O      416.809    -895.671     384.415
  C      417.558    -893.531     385.274
  O      417.467    -893.871     386.676
  C      418.985    -893.831     384.866
  O      419.327    -893.161     383.658
  C      419.752    -893.361     386.095
  O      419.952    -891.941     386.049
  C      418.796    -893.741     387.228
  N      421.845    -895.741     390.792
  C      421.805    -894.511     390.227
  N      420.985    -894.071     389.260
  C      420.156    -895.051     388.845
  C      420.108    -896.361     389.299
  C      420.994    -896.691     390.349
  N      420.994    -897.921     390.972
  N      419.146    -897.071     388.608
  C      418.634    -896.221     387.757
  N      419.167    -894.971     387.903
  O      414.612    -896.201     383.112
  O      416.879    -896.121     381.952
  H      420.555    -891.751     385.309
  H      416.248    -895.841     381.265
  H      422.508    -893.791     390.626
  H      417.878    -896.441     387.030
  H      418.740    -892.951     387.994
  H      420.743    -893.821     386.173
  H      419.114    -894.921     384.750
  H      417.344    -892.451     385.186
  H      415.517    -894.161     384.948
  H      421.582    -898.011     391.804
  H      420.186    -898.521     390.865
  H      416.434    -893.881     383.450
  P      420.335    -893.841     382.631
  C      421.276    -893.191     380.330
  O      420.204    -893.041     381.240
  O      420.248    -895.331     382.509
  O      421.774    -893.391     383.166
  H      422.434    -894.081     382.972
  H      422.127    -892.571     380.644
  H      420.939    -892.851     379.338
  H      421.596    -894.241     380.268
  H      415.802    -900.000     383.672
  H      414.882    -899.018     382.557
  H      414.679    -898.806     384.279

 3  4  5  6  7  8  9  10  11  12  22  25  29  30  31  32 0
 6-311+G(2d,p)
 ****
 33  36  37 0
 6-311+G(2d,p)
 ****
 1  2  13  14  15  16  17  18  19  20  21  23  24  26 0
 3-21G
 ****
 27  28  34  35  38  39  40  41  42  43  44  45  46  47  48 0
 3-21G
 ****


