%nproc=1
%NoSave
%Mem=1900MB
#P OB98/GEN NMR

erre ene a

0 1
  C      144.672    -183.633      28.200
  O      145.803    -184.472      28.319
  H      143.788    -184.257      28.054
  H      144.786    -182.977      27.334
  H      144.540    -183.038      29.107
  P      147.206    -183.757      28.632
  C      146.974    -184.416      31.130
  O      147.180    -183.370      30.192
  C      148.201    -185.321      31.210
  O      149.357    -184.513      31.589
  C      148.083    -186.459      32.235
  O      148.777    -187.600      31.713
  C      148.871    -185.930      33.422
  O      149.317    -186.967      34.292
  C      149.989    -185.186      32.695
  N      154.543    -183.471      33.973
  C      154.167    -184.390      33.013
  N      155.158    -184.937      32.275
  N      152.929    -184.739      32.790
  C      152.038    -184.087      33.579
  C      152.280    -183.164      34.567
  C      153.660    -182.805      34.821
  O      154.056    -182.014      35.671
  N      151.110    -182.757      35.159
  C      150.167    -183.430      34.527
  N      150.681    -184.251      33.561
  O      147.052    -182.348      27.890
  O      148.418    -184.500      28.178
  H      149.846    -186.554      35.006
  H      147.429    -182.396      26.992
  H      155.512    -183.246      34.113
  H      149.105    -183.365      34.732
  H      150.749    -185.867      32.292
  H      148.254    -185.235      34.007
  H      156.129    -184.682      32.357
  H      147.054    -186.734      32.489
  H      154.899    -185.581      31.535
  H      148.409    -185.717      30.209
  H      146.111    -185.012      30.811
  H      146.764    -183.983      32.113
  P      147.912    -188.888      31.310
  C      147.441    -188.370      28.806
  O      146.920    -188.468      30.124
  O      146.918    -189.052      32.558
  O      148.717    -190.122      31.082
  H      146.661    -189.985      32.656
  H      146.660    -188.082      28.134
  H      147.837    -189.318      28.508
  H      148.219    -187.636      28.784

 6  7  8  9  10  11  12  13  14  15  26  29  33  34 0
 6-311+G(2d,p)
 ****
 36  38  39  40  41 0
 6-311+G(2d,p)
 ****
 1  2  3  4  5  16  17  18  19  20  21  22  23  24  25 0
 3-21G
 ****
 27  28  30  31  32  35  37  42  43  44  45  46  47 0
 3-21G
 ****
 48  49 0
 3-21G
 ****


