%nproc=1
%NoSave
%Mem=1900MB
#P OB98/GEN NMR

erre ene a

0 1
  C     -351.766     216.205     329.387
  O     -351.042     215.986     330.582
  H     -351.939     217.278     329.274
  H     -352.732     215.699     329.437
  H     -351.201     215.848     328.520
  P     -350.497     214.515     330.897
  C     -352.340     213.722     332.524
  O     -351.776     213.606     331.224
  C     -353.067     212.430     332.916
  O     -352.206     211.294     332.595
  C     -353.411     212.326     334.417
  O     -354.606     211.540     334.524
  C     -352.203     211.570     334.939
  O     -352.374     211.101     336.248
  C     -352.057     210.533     333.812
  N     -350.800     209.791     333.804
  C     -350.659     208.749     334.717
  O     -351.515     208.407     335.530
  N     -349.458     208.084     334.680
  C     -348.422     208.345     333.826
  O     -347.383     207.696     333.818
  C     -348.629     209.460     332.893
  C     -349.791     210.119     332.920
  O     -349.390     214.430     331.894
  O     -350.035     213.971     329.461
  H     -349.062     214.031     329.384
  H     -351.772     210.338     336.394
  H     -349.341     207.327     335.331
  H     -347.823     209.700     332.214
  H     -349.978     210.939     332.232
  H     -352.891     209.820     333.852
  H     -351.330     212.233     334.969
  H     -353.574     213.300     334.888
  H     -353.968     212.329     332.296
  H     -353.048     214.557     332.517
  H     -351.540     213.937     333.243
  P     -356.077     212.172     334.600
  C     -356.017     213.035     337.042
  O     -356.050     213.380     335.663
  O     -357.159     211.172     334.863
  O     -356.301     212.902     333.189
  H     -357.254     212.945     332.992
  H     -356.002     213.927     337.633
  H     -355.139     212.458     337.244
  H     -356.886     212.460     337.287

 6  7  8  9  10  11  12  13  14  15  16  27  31  32  33  34  35 0
 6-311+G(2d,p)
 ****
 36  37 0
 6-311+G(2d,p)
 ****
 1  2  3  4  5  17  18  19  20  21  22  23  24  25 0
 3-21G
 ****
 26  28  29  30  38  39  40  41  42  43  44  45 0
 3-21G
 ****


