%nproc=1
%NoSave
%Mem=1900MB
#P OB98/GEN NMR

erre ene a

0 1
  C     -939.926     503.953     174.680
  O     -941.279     503.630     174.949
  P     -942.199     503.166     173.716
  C     -943.885     504.301     172.105
  O     -942.871     504.482     173.079
  C     -944.589     505.634     171.807
  O     -945.436     505.993     172.925
  C     -943.616     506.797     171.573
  O     -944.177     507.702     170.604
  C     -943.602     507.522     172.909
  O     -943.203     508.880     172.765
  C     -945.046     507.321     173.359
  N     -946.441     510.486     177.051
  C     -946.660     510.574     175.698
  N     -947.251     511.710     175.248
  N     -946.329     509.634     174.836
  C     -945.734     508.563     175.417
  C     -945.476     508.360     176.761
  C     -945.833     509.407     177.686
  O     -945.643     509.400     178.904
  N     -944.896     507.140     176.972
  C     -944.753     506.617     175.758
  N     -945.223     507.468     174.786
  O     -943.431     502.441     174.456
  O     -941.535     502.242     172.749
  H     -943.861     509.317     172.175
  H     -943.349     501.472     174.348
  H     -946.698     511.238     177.665
  H     -944.309     505.660     175.538
  H     -945.723     508.034     172.862
  H     -942.900     507.032     173.596
  H     -947.480     512.491     175.844
  H     -942.619     506.500     171.249
  H     -947.389     511.819     174.255
  H     -945.240     505.492     170.938
  H     -944.623     503.592     172.481
  H     -943.452     503.896     171.189
  P     -943.201     508.858     170.071
  C     -942.965     511.381     170.686
  O     -943.381     510.092     171.074
  O     -943.924     509.350     168.725
  O     -941.792     508.413     169.831
  H     -943.262     509.740     168.108
  H     -943.831     512.037     170.631
  H     -942.464     511.369     169.701
  H     -942.267     511.764     171.423
  H     -939.441     504.242     175.589
  H     -939.885     504.762     173.981
  H     -939.431     503.099     174.268

 3  4  5  6  7  8  9  10  11  12  23  26  30  31 0
 6-311+G(2d,p)
 ****
 33  35  36  37  38 0
 6-311+G(2d,p)
 ****
 1  2  13  14  15  16  17  18  19  20  21  22  24  25 0
 3-21G
 ****
 27  28  29  32  34  39  40  41  42  43  44  45  46  47  48  49 0
 3-21G
 ****


