%nproc=1
%NoSave
%Mem=1900MB
#P OB98/GEN NMR

erre ene a

0 1
  C      125.716    -121.004     156.023
  O      127.125    -121.185     156.194
  P      127.635    -121.694     157.628
  C      129.864    -120.608     158.430
  O      129.235    -121.622     157.651
  C      131.386    -120.779     158.389
  O      131.780    -122.056     158.927
  C      131.952    -120.750     156.981
  O      132.032    -119.421     156.502
  C      133.307    -121.419     157.170
  O      134.333    -120.463     157.488
  C      133.061    -122.375     158.359
  N      133.136    -123.777     157.978
  C      134.352    -124.417     158.238
  O      135.288    -123.791     158.741
  N      134.482    -125.741     157.900
  C      133.496    -126.359     157.328
  N      133.687    -127.669     157.012
  C      132.205    -125.711     157.010
  C      132.098    -124.431     157.359
  O      127.334    -123.263     157.588
  O      126.955    -121.030     158.782
  H      134.475    -119.945     156.667
  H      127.109    -123.587     158.480
  H      131.417    -126.267     156.526
  H      131.186    -123.876     157.162
  H      133.806    -122.203     159.148
  H      133.632    -121.934     156.260
  H      131.330    -121.359     156.311
  H      131.840    -119.984     158.994
  H      134.582    -128.077     157.241
  H      129.510    -120.654     159.461
  H      132.990    -128.242     156.557
  H      129.568    -119.630     158.038
  P      131.966    -119.191     154.922
  C      133.395    -117.094     155.317
  O      132.226    -117.621     154.717
  O      130.392    -119.303     154.629
  O      132.760    -120.115     154.059
  H      130.226    -119.276     153.670
  H      133.560    -116.083     154.932
  H      134.264    -117.707     155.074
  H      133.263    -117.039     156.401
  H      125.518    -120.665     155.028
  H      125.362    -120.278     156.724
  H      125.214    -121.934     156.189

 3  4  5  6  7  8  9  10  11  12  13  21  23  27  28  29  30  32 0
 6-311+G(2d,p)
 ****
 34  35 0
 6-311+G(2d,p)
 ****
 1  2  14  15  16  17  18  19  20  22  24  25  26 0
 3-21G
 ****
 31  33  36  37  38  39  40  41  42  43  44  45  46 0
 3-21G
 ****


