%nproc=1
%NoSave
%Mem=1900MB
#P OB98/GEN NMR

erre ene a

0 1
  C      106.817     348.635     -82.110
  O      107.684     349.661     -82.552
  H      107.192     347.676     -82.474
  H      105.810     348.794     -82.509
  H      106.784     348.610     -81.018
  P      107.317     351.156     -82.104
  C      106.683     351.872     -84.521
  O      106.255     351.704     -83.175
  C      105.839     352.950     -85.197
  O      104.528     352.420     -85.507
  C      105.585     354.171     -84.322
  O      106.698     355.049     -84.285
  C      104.365     354.771     -85.004
  O      104.737     355.578     -86.128
  C      103.599     353.527     -85.472
  N       98.510     353.521     -85.081
  C       99.334     353.809     -86.111
  N      100.683     353.774     -86.138
  C      101.170     353.366     -84.953
  C      100.452     353.033     -83.817
  C       99.055     353.122     -83.909
  N       98.212     352.854     -82.853
  N      101.306     352.701     -82.782
  C      102.519     352.822     -83.288
  N      102.484     353.216     -84.597
  O      108.654     351.972     -82.438
  O      106.915     351.307     -80.675
  H      103.904     355.835     -86.569
  H      109.170     352.101     -81.619
  H       98.850     354.118     -87.032
  H      103.440     352.641     -82.751
  H      103.197     353.645     -86.483
  H      103.806     355.400     -84.315
  H      105.306     353.860     -83.309
  H      106.324     353.237     -86.138
  H      106.561     350.928     -85.062
  H      107.742     352.153     -84.526
  H       97.225     353.003     -82.970
  H       98.614     352.666     -81.944
  P      106.621     356.304     -83.291
  C      106.791     357.848     -85.386
  O      106.142     357.566     -84.156
  O      108.154     356.629     -82.965
  O      105.827     356.065     -82.051
  H      108.239     356.935     -82.040
  H      106.351     358.716     -85.830
  H      106.680     357.014     -86.047
  H      107.831     358.026     -85.208

 6  7  8  9  10  11  12  13  14  15  25  28  32  33  34  35 0
 6-311+G(2d,p)
 ****
 36  37  40 0
 6-311+G(2d,p)
 ****
 1  2  3  4  5  16  17  18  19  20  21  22  23  24 0
 3-21G
 ****
 26  27  29  30  31  38  39 41  42  43  44  45  46  47  48 0
 3-21G
 ****


