%nproc=1
%NoSave
%Mem=1900MB
#P OB98/GEN NMR

erre ene a

0 1
  C      151.502      57.559     119.604
  O      150.090      57.584     119.691
  P      149.425      58.610     120.728
  C      148.357      56.716     122.168
  O      149.239      57.830     122.115
  C      148.542      55.976     123.495
  O      149.844      55.352     123.547
  C      148.475      56.885     124.715
  O      147.135      57.206     125.049
  C      149.179      56.041     125.767
  O      148.275      55.091     126.355
  C      150.256      55.322     124.929
  N      151.585      55.895     125.113
  C      152.350      55.348     126.137
  O      151.938      54.447     126.871
  N      153.590      55.895     126.319
  C      154.109      56.951     125.631
  O      155.207      57.436     125.876
  C      153.245      57.511     124.577
  C      152.040      56.971     124.375
  O      147.930      58.787     120.186
  O      150.132      59.918     120.845
  H      147.953      54.525     125.625
  H      147.629      59.704     120.336
  H      154.168      55.495     127.040
  H      153.624      58.351     124.010
  H      151.384      57.377     123.614
  H      150.301      54.261     125.206
  H      149.580      56.649     126.583
  H      149.061      57.796     124.535
  H      147.783      55.187     123.560
  H      148.576      56.043     121.336
  H      147.328      57.071     122.065
  P      146.858      58.686     125.608
  C      147.144      57.825     128.058
  O      147.555      58.722     127.051
  O      145.287      58.604     125.904
  O      147.261      59.756     124.649
  H      145.011      57.713     126.178
  H      146.871      56.852     127.641
  H      146.287      58.245     128.591
  H      147.967      57.687     128.764
  H      151.802      56.833     118.878
  H      151.914      57.301     120.557
  H      151.858      58.524     119.311

 3  4  5  6  7  8  9  10  11  12  13  23  28  29  30  31  32 0
 6-311+G(2d,p)
 ****
 33  34 0
 6-311+G(2d,p)
 ****
 1  2  14  15  16  17  18  19  20  21  22  24  25  26 0
 3-21G
 ****
 27  35  36  37  38  39  40  41  42  43  44  45 0
 3-21G
 ****


