%nproc=1
%NoSave
%Mem=1900MB
#P OB98/GEN NMR

erre ene a

0 1
  C       81.767     130.607      14.822
  O       81.337     130.544      13.458
  P       79.783     130.850      13.194
  C       79.207     128.335      12.940
  O       78.943     129.552      13.627
  C       77.910     127.605      12.574
  O       77.179     127.208      13.772
  C       76.948     128.445      11.724
  O       76.277     127.544      10.831
  C       75.950     128.952      12.751
  O       74.739     129.393      12.134
  C       75.830     127.712      13.636
  N       71.657     129.277      16.009
  C       71.946     129.221      14.660
  N       70.957     129.592      13.815
  N       73.100     128.837      14.178
  C       73.978     128.460      15.141
  C       73.807     128.452      16.504
  C       72.537     128.911      17.024
  O       72.228     128.975      18.209
  N       74.924     127.970      17.153
  C       75.784     127.751      16.172
  N       75.245     127.980      14.934
  O       79.681     130.860      11.597
  O       79.315     132.138      13.788
  H       74.178     129.787      12.835
  H       79.668     131.777      11.266
  H       70.758     129.599      16.323
  H       76.797     127.406      16.300
  H       75.213     126.931      13.174
  H       76.376     129.794      13.310
  H       70.027     129.849      14.115
  H       77.424     129.254      11.161
  H       71.130     129.521      12.818
  H       78.174     126.688      12.033
  H       79.822     127.681      13.562
  H       79.803     128.553      12.046
  P       77.088     127.011       9.557
  C       76.316     128.779       7.828
  O       77.377     128.274       8.616
  O       75.984     126.183       8.743
  O       78.270     126.154       9.882
  H       76.390     125.383       8.359
  H       76.496     129.837       7.632
  H       75.350     128.676       8.332
  H       76.283     128.242       6.877
  H       82.813     130.387      14.877
  H       81.221     129.892      15.401
  H       81.588     131.589      15.207

 3  4  5  6  7  8  9  10  11  12  23  26  30  31 0
 6-311+G(2d,p)
 ****
 33  35  36  37  38 0
 6-311+G(2d,p)
 ****
 1  2  13  14  15  16  17  18  19  20  21  22  24  25 0
 3-21G
 ****
 27  28  29  32  34  39  40  41  42  43  44  45  46  47  48  49 0
 3-21G
 ****


