%nproc=1
%NoSave
%Mem=1900MB
#P OB98/GEN NMR

erre ene a

0 1
  C      506.627    -206.699    -865.699
  O      507.033    -206.948    -867.030
  H      506.394    -205.638    -865.568
  H      505.730    -207.286    -865.488
  H      507.417    -206.993    -865.001
  P      508.347    -206.182    -867.547
  C      507.090    -203.932    -867.209
  O      507.841    -204.758    -868.088
  C      506.400    -202.829    -868.005
  O      507.375    -202.046    -868.728
  C      505.412    -203.339    -869.057
  O      504.155    -203.672    -868.495
  C      505.313    -202.118    -869.948
  O      504.459    -201.128    -869.331
  C      506.766    -201.623    -869.975
  N      507.068    -201.961    -875.078
  C      506.162    -201.385    -874.258
  N      506.146    -201.336    -872.915
  C      507.211    -201.983    -872.409
  C      508.215    -202.634    -873.112
  C      508.117    -202.596    -874.517
  N      509.036    -203.205    -875.349
  N      509.119    -203.212    -872.251
  C      508.693    -202.893    -871.042
  N      507.534    -202.163    -871.087
  O      508.734    -206.965    -868.886
  O      509.478    -206.112    -866.573
  H      504.495    -200.340    -869.895
  H      509.676    -206.808    -869.104
  H      505.334    -200.882    -874.757
  H      509.177    -203.160    -870.118
  H      506.838    -200.530    -870.024
  H      504.883    -202.334    -870.930
  H      505.833    -204.175    -869.624
  H      505.893    -202.160    -867.290
  H      507.765    -203.481    -866.476
  H      508.773    -203.286    -876.320
  H      509.733    -203.810    -874.934
  H      506.353    -204.546    -866.682
  P      503.979    -205.165    -867.936
  C      503.081    -205.872    -870.266
  O      502.860    -205.853    -868.857
  O      503.216    -204.937    -866.541
  O      505.246    -205.925    -867.766
  H      503.401    -205.666    -865.922
  H      502.260    -206.358    -870.749
  H      503.985    -206.404    -870.478
  H      503.164    -204.868    -870.628

 6  7  8  9  10  11  12  13  14  15  25  28  32  33  34  35 0
 6-311+G(2d,p)
 ****
 36  39  40 0
 6-311+G(2d,p)
 ****
 1  2  3  4  5  16  17  18  19  20  21  22  23  24 0
 3-21G
 ****
 26  27  29  30  31  37  38  41  42  43  44  45  46  47 0
 3-21G
 ****
 48 0
 3-21G
 ****


