%nproc=1
%NoSave
%Mem=1900MB
#P OB98/GEN NMR

erre ene a

0 1
  C     -761.315     233.671     125.052
  O     -760.538     232.970     124.106
  H     -762.306     233.849     124.628
  H     -760.850     234.634     125.273
  H     -761.430     233.093     125.973
  P     -759.146     232.325     124.568
  C     -760.261     230.003     124.645
  O     -759.513     230.973     125.355
  C     -760.586     228.798     125.539
  O     -761.569     229.209     126.534
  C     -761.171     227.599     124.781
  O     -760.763     226.413     125.477
  C     -762.664     227.826     124.952
  O     -763.401     226.652     124.685
  C     -762.711     228.340     126.391
  N     -763.963     229.029     126.699
  C     -764.999     228.236     127.188
  O     -764.912     227.016     127.325
  N     -766.176     228.883     127.462
  C     -766.420     230.208     127.245
  O     -767.504     230.730     127.483
  C     -765.303     230.987     126.694
  C     -764.141     230.370     126.453
  O     -758.219     233.240     125.296
  O     -758.497     231.771     123.216
  H     -764.359     226.817     124.807
  H     -757.519     231.801     123.274
  H     -766.933     228.328     127.819
  H     -765.470     232.041     126.503
  H     -763.299     230.918     126.047
  H     -762.592     227.511     127.107
  H     -763.020     228.594     124.259
  H     -760.863     227.556     123.737
  H     -759.681     228.516     126.084
  H     -759.664     229.673     123.788
  H     -761.191     230.449     124.278
  P     -759.310     225.766     125.275
  C     -758.391     226.820     127.436
  O     -758.231     226.678     126.029
  O     -758.967     225.454     123.856
  O     -759.337     224.430     126.158
  H     -758.722     223.769     125.779
  H     -757.615     227.447     127.822
  H     -758.335     225.858     127.900
  H     -759.343     227.262     127.644

 6  7  8  9  10  11  12  13  14  15  16  26  31  32  33  34  35 0
 6-311+G(2d,p)
 ****
 36  37 0
 6-311+G(2d,p)
 ****
 1  2  3  4  5  17  18  19  20  21  22  23  24  25 0
 3-21G
 ****
 27  28  29  30  38  39  40  41  42  43  44  45 0
 3-21G
 ****


