%nproc=1
%NoSave
%Mem=1900MB
#P OB98/GEN NMR

erre ene a

0 1
  C      277.503    1069.425     833.167
  O      278.805    1068.998     832.805
  H      277.282    1069.031     834.170
  H      276.781    1069.039     832.456
  H      277.449    1070.521     833.203
  P      279.348    1069.509     831.385
  C      277.694    1067.938     830.137
  O      278.166    1069.246     830.326
  C      276.693    1067.894     828.970
  O      277.418    1068.114     827.719
  C      275.950    1066.545     828.814
  O      274.643    1066.783     828.255
  C      276.811    1065.843     827.791
  O      276.138    1064.727     827.245
  C      277.133    1066.978     826.858
  N      278.437    1066.121     822.003
  C      277.241    1066.428     822.580
  N      276.969    1066.640     823.891
  C      278.103    1066.566     824.601
  C      279.371    1066.244     824.168
  C      279.511    1066.018     822.798
  N      280.706    1065.660     822.203
  N      280.281    1066.219     825.233
  C      279.562    1066.492     826.293
  N      278.229    1066.714     825.951
  O      280.451    1068.405     830.984
  O      279.921    1070.902     831.359
  H      275.246    1064.971     826.949
  H      281.320    1068.688     831.291
  H      276.372    1066.526     821.909
  H      279.913    1066.545     827.323
  H      276.277    1067.276     826.246
  H      277.746    1065.440     828.243
  H      275.840    1066.005     829.781
  H      275.978    1068.728     829.074
  H      277.200    1067.596     831.052
  H      278.532    1067.276     829.912
  H      280.720    1065.491     821.205
  H      281.529    1065.540     822.769
  P      273.362    1066.334     829.067
  C      273.248    1063.731     829.081
  O      273.607    1064.905     829.767
  O      272.322    1065.944     827.894
  O      272.739    1067.365     829.954
  H      271.462    1066.324     828.066
  H      273.478    1062.879     829.687
  H      273.794    1063.673     828.163
  H      272.199    1063.747     828.872

 6  7  8  9  10  11  12  13  14  15  25  28  32  33  34  35 0
 6-311+G(2d,p)
 ****
 36  37  40 0
 6-311+G(2d,p)
 ****
 1  2  3  4  5  16  17  18  19  20  21  22  23  24 0
 3-21G
 ****
 26  27  29  30  31  38  39 41  42  43  44  45  46  47  48 0
 3-21G
 ****


