%nproc=1
%NoSave
%Mem=1900MB
#P OB98/GEN NMR

erre ene a

0 1
  C     -112.425     -45.546    -270.547
  O     -112.252     -46.353    -269.398
  H     -111.719     -44.713    -270.519
  H     -112.217     -46.150    -271.435
  H     -113.448     -45.171    -270.609
  P     -112.792     -45.768    -268.004
  C     -114.866     -44.205    -267.938
  O     -114.365     -45.511    -268.200
  C     -116.391     -44.194    -268.015
  O     -116.791     -44.586    -269.360
  C     -117.083     -45.143    -267.023
  O     -118.266     -44.502    -266.528
  C     -117.490     -46.321    -267.897
  O     -118.601     -47.038    -267.372
  C     -117.777     -45.625    -269.221
  N     -120.447     -49.115    -271.785
  C     -120.826     -48.144    -270.924
  N     -120.051     -47.213    -270.323
  C     -118.777     -47.313    -270.748
  C     -118.243     -48.245    -271.619
  C     -119.143     -49.200    -272.142
  N     -118.757     -50.230    -272.964
  N     -116.880     -48.056    -271.757
  C     -116.593     -47.046    -270.961
  N     -117.703     -46.567    -270.323
  O     -112.168     -44.289    -267.987
  O     -112.415     -46.545    -266.790
  H     -119.386     -46.453    -267.374
  H     -111.277     -44.316    -267.595
  H     -121.883     -48.116    -270.677
  H     -115.605     -46.649    -270.782
  H     -118.772     -45.160    -269.248
  H     -116.644     -47.014    -267.991
  H     -116.447     -45.448    -266.184
  H     -116.738     -43.161    -267.865
  H     -114.465     -43.513    -268.687
  H     -119.453     -50.924    -273.198
  H     -117.775     -50.368    -273.148
  H     -114.529     -43.882    -266.948
  P     -118.114     -43.581    -265.222
  C     -115.959     -42.534    -264.206
  O     -116.770     -42.717    -265.359
  O     -117.761     -44.636    -264.070
  O     -119.343     -42.800    -264.893
  H     -118.131     -44.345    -263.218
  H     -115.106     -41.940    -264.460
  H     -115.634     -43.487    -263.843
  H     -116.526     -42.037    -263.446

 6  7  8  9  10  11  12  13  14  15  25  28  32  33  34  35 0
 6-311+G(2d,p)
 ****
 36  39  40 0
 6-311+G(2d,p)
 ****
 1  2  3  4  5  16  17  18  19  20  21  22  23  24 0
 3-21G
 ****
 26  27  29  30  31  37  38  41  42  43  44  45  46  47 0
 3-21G
 ****
 48 0
 3-21G
 ****


