%nproc=1
%NoSave
%Mem=1900MB
#P OB98/GEN NMR

erre ene a

0 1
  C      -78.848     -70.320     246.761
  O      -77.784     -70.222     247.685
  P      -76.739     -71.428     247.857
  C      -77.441     -72.624     250.031
  O      -77.553     -72.590     248.611
  C      -77.095     -74.032     250.516
  O      -77.916     -75.013     249.852
  C      -75.655     -74.445     250.248
  O      -74.780     -73.839     251.181
  C      -75.758     -75.960     250.365
  O      -75.702     -76.381     251.737
  C      -77.154     -76.236     249.766
  N      -77.083     -76.735     248.399
  C      -76.894     -78.115     248.262
  O      -76.764     -78.829     249.257
  N      -76.805     -78.646     246.997
  C      -76.877     -77.862     245.965
  N      -76.771     -78.445     244.741
  C      -77.044     -76.399     246.068
  C      -77.138     -75.908     247.302
  O      -75.433     -71.055     248.472
  O      -76.600     -72.000     246.367
  H      -75.822     -77.352     251.729
  H      -76.059     -71.400     245.799
  H      -77.088     -75.785     245.180
  H      -77.260     -74.845     247.471
  H      -77.692     -76.976     250.372
  H      -74.943     -76.469     249.840
  H      -75.377     -74.175     249.223
  H      -77.310     -74.082     251.592
  H      -76.626     -79.446     244.714
  H      -78.401     -72.320     250.459
  H      -76.777     -77.926     243.876
  H      -76.680     -71.906     250.352
  P      -73.324     -73.364     250.718
  C      -72.427     -75.525     251.770
  O      -72.383     -74.659     250.653
  O      -72.759     -72.204     251.469
  O      -73.528     -72.991     249.173
  H      -73.071     -72.149     248.986
  H      -72.027     -76.499     251.476
  H      -73.451     -75.655     252.128
  H      -71.808     -75.114     252.573
  H      -79.431     -69.423     246.792
  H      -79.466     -71.156     247.016
  H      -78.453     -70.455     245.776

 3  4  5  6  7  8  9  10  11  12  13  23  27  28  29  30  32 0
 6-311+G(2d,p)
 ****
 34  35 0
 6-311+G(2d,p)
 ****
 1  2  14  15  16  17  18  19  20  21  22  24  25  26 0
 3-21G
 ****
 31  33  36  37  38  39  40  41  42  43  44  45  46 0
 3-21G
 ****


