%nproc=1
%NoSave
%Mem=1900MB
#P OB98/GEN NMR

erre ene a

0 1
  C       37.916      33.192     -29.233
  O       36.679      32.668     -29.699
  P       35.368      32.910     -28.808
  C       34.168      35.002     -27.856
  O       35.370      34.460     -28.384
  C       34.431      35.768     -26.561
  O       34.698      34.818     -25.495
  C       35.623      36.729     -26.620
  O       35.315      37.843     -25.774
  C       36.744      35.924     -25.990
  O       37.800      36.751     -25.511
  C       35.968      35.177     -24.909
  N       37.957      32.771     -20.861
  C       37.299      33.943     -20.975
  N       36.798      34.518     -22.088
  C       37.037      33.751     -23.165
  C       37.725      32.551     -23.209
  C       38.198      32.051     -21.983
  N       38.859      30.852     -21.863
  N       37.791      32.077     -24.502
  C       37.156      32.974     -25.226
  N       36.662      33.990     -24.459
  O       35.726      32.150     -27.446
  O       34.097      32.405     -29.396
  H       37.433      37.356     -24.840
  H       35.157      31.361     -27.346
  H       37.148      34.490     -20.048
  H       37.029      32.935     -26.299
  H       35.770      35.806     -24.032
  H       37.164      35.232     -26.729
  H       35.869      37.075     -27.630
  H       33.517      36.309     -26.288
  H       33.478      34.182     -27.643
  H       39.043      30.499     -20.938
  H       38.876      30.222     -22.658
  H       33.707      35.661     -28.598
  P       36.031      39.235     -26.116
  C       36.029      40.805     -28.180
  O       35.796      39.504     -27.675
  O       37.590      38.882     -26.021
  O       35.662      40.352     -25.196
  H       38.098      39.677     -25.778
  H       36.402      40.724     -29.204
  H       36.761      41.351     -27.578
  H       35.087      41.360     -28.187
  H       38.691      32.951     -29.930
  H       38.148      32.765     -28.280
  H       37.840      34.255     -29.138

 3  4  5  6  7  8  9  10  11  12  22  25  29  30  31  32 0
 6-311+G(2d,p)
 ****
 33  36  37 0
 6-311+G(2d,p)
 ****
 1  2  13  14  15  16  17  18  19  20  21  23  24  26 0
 3-21G
 ****
 27  28  34  35  38  39  40  41  42  43  44  45  46  47  48 0
 3-21G
 ****


