%nproc=1
%NoSave
%Mem=1900MB
#P OB98/GEN NMR

erre ene a

0 1
  C      583.664    -142.963     788.385
  O      583.126    -142.305     789.510
  H      582.946    -142.902     787.562
  H      583.837    -144.017     788.614
  H      584.599    -142.493     788.072
  P      584.075    -142.134     790.791
  C      584.153    -139.556     790.458
  O      584.896    -140.765     790.576
  C      585.090    -138.403     790.077
  O      585.762    -138.725     788.837
  C      584.354    -137.071     789.884
  O      585.179    -136.024     790.407
  C      584.256    -136.934     788.375
  O      584.137    -135.576     787.948
  C      585.539    -137.647     787.914
  N      585.410    -138.124     786.538
  C      585.853    -137.261     785.531
  O      586.309    -136.158     785.814
  N      585.720    -137.648     784.220
  C      585.110    -138.762     783.940
  N      584.970    -139.067     782.623
  C      584.558    -139.664     784.968
  C      584.751    -139.292     786.238
  O      585.191    -143.259     790.587
  O      583.393    -142.242     792.114
  H      583.983    -135.574     786.975
  H      585.509    -143.605     791.439
  H      584.033    -140.569     784.685
  H      584.383    -139.893     787.057
  H      586.394    -136.970     787.976
  H      583.370    -137.469     788.019
  H      583.375    -137.038     790.372
  H      585.862    -138.318     790.850
  H      585.342    -138.415     781.937
  H      583.684    -139.328     791.425
  H      584.477    -139.885     782.283
  H      583.371    -139.680     789.699
  P      585.056    -135.709     791.976
  C      587.446    -136.504     792.617
  O      586.045    -136.696     792.759
  O      583.599    -136.258     792.340
  O      585.204    -134.259     792.315
  H      582.992    -135.516     792.510
  H      587.967    -137.237     793.197
  H      587.708    -135.525     792.960
  H      587.717    -136.606     791.587

 6  7  8  9  10  11  12  13  14  15  16  26  30  31  32  33  35 0
 6-311+G(2d,p)
 ****
 37  38 0
 6-311+G(2d,p)
 ****
 1  2  3  4  5  17  18  19  20  21  22  23  24  25 0
 3-21G
 ****
 27  28  29  34  36  39  40  41  42  43  44  45  46 0
 3-21G
 ****


