%nproc=1
%NoSave
%Mem=1900MB
#P OB98/GEN NMR

erre ene a

0 1
  C      154.868     126.332    -171.923
  O      155.190     126.702    -173.267
  P      154.071     126.456    -174.389
  C      154.631     128.349    -176.087
  O      153.740     127.856    -175.093
  C      155.131     129.743    -175.702
  O      155.958     129.693    -174.525
  C      155.998     130.384    -176.772
  O      155.198     130.899    -177.818
  C      156.739     131.455    -175.980
  O      156.021     132.699    -175.967
  C      156.813     130.850    -174.560
  N      158.170     130.516    -174.162
  C      159.091     131.568    -174.187
  O      158.739     132.692    -174.552
  N      160.388     131.314    -173.821
  C      160.739     130.111    -173.487
  N      162.040     129.920    -173.141
  C      159.805     128.968    -173.475
  C      158.548     129.239    -173.821
  O      152.754     126.152    -173.533
  O      154.390     125.337    -175.326
  H      155.135     132.488    -175.607
  H      152.182     125.521    -174.006
  H      160.146     127.982    -173.198
  H      157.794     128.459    -173.841
  H      156.411     131.556    -173.823
  H      157.722     131.663    -176.413
  H      156.713     129.651    -177.162
  H      154.259     130.380    -175.494
  H      162.653     130.725    -173.162
  H      154.129     128.388    -177.056
  H      162.422     129.025    -172.871
  H      155.465     127.647    -176.192
  P      154.503     129.853    -178.809
  C      152.095     130.627    -178.371
  O      153.045     129.596    -178.188
  O      155.260     128.488    -178.441
  O      154.562     130.147    -180.270
  H      154.990     127.780    -179.051
  H      151.109     130.247    -178.094
  H      152.067     130.947    -179.415
  H      152.339     131.475    -177.725
  H      155.699     126.549    -171.284
  H      154.652     125.285    -171.883
  H      154.012     126.885    -171.596

 3  4  5  6  7  8  9  10  11  12  13  21  23  27  28  29  30  32 0
 6-311+G(2d,p)
 ****
 34  35 0
 6-311+G(2d,p)
 ****
 1  2  14  15  16  17  18  19  20  22  24  25  26 0
 3-21G
 ****
 31  33  36  37  38  39  40  41  42  43  44  45  46 0
 3-21G
 ****


