%nproc=1
%NoSave
%Mem=1900MB
#P OB98/GEN NMR

erre ene a

0 1
  C       42.257    -137.533      -4.506
  O       43.594    -137.645      -4.049
  P       44.514    -138.795      -4.677
  C       45.089    -141.221      -3.941
  O       44.115    -140.187      -3.982
  C       44.447    -142.563      -3.581
  O       43.490    -142.934      -4.608
  C       45.454    -143.711      -3.461
  O       45.012    -144.623      -2.444
  C       45.339    -144.426      -4.794
  O       45.768    -145.781      -4.699
  C       43.846    -144.248      -5.082
  N       41.360    -147.029      -8.494
  C       41.236    -147.013      -7.118
  N       40.396    -147.920      -6.578
  N       41.872    -146.175      -6.343
  C       42.683    -145.327      -7.023
  C       42.878    -145.238      -8.383
  C       42.175    -146.177      -9.228
  O       42.263    -146.266     -10.451
  N       43.749    -144.226      -8.701
  C       44.120    -143.734      -7.536
  N       43.527    -144.388      -6.487
  O       45.959    -138.472      -4.064
  O       44.560    -138.814      -6.168
  H       46.744    -145.766      -4.647
  H       46.526    -138.073      -4.751
  H       40.856    -147.702      -9.048
  H       44.824    -142.923      -7.395
  H       43.242    -144.975      -4.527
  H       45.956    -143.920      -5.546
  H       39.928    -148.639      -7.114
  H       46.481    -143.396      -3.239
  H       40.319    -147.960      -5.570
  H       43.884    -142.441      -2.648
  H       45.842    -140.971      -3.194
  H       45.587    -141.290      -4.916
  P       46.061    -144.929      -1.267
  C       47.975    -146.678      -0.995
  O       47.093    -145.997      -1.868
  O       45.202    -145.782      -0.218
  O       46.667    -143.710      -0.653
  H       45.573    -145.685       0.679
  H       47.746    -147.747      -1.030
  H       47.884    -146.330       0.038
  H       48.998    -146.521      -1.333
  H       41.773    -136.725      -3.998
  H       41.734    -138.445      -4.306
  H       42.255    -137.344      -5.559

 3  4  5  6  7  8  9  10  11  12  23  26  30  31 0
 6-311+G(2d,p)
 ****
 33  35  36  37  38 0
 6-311+G(2d,p)
 ****
 1  2  13  14  15  16  17  18  19  20  21  22  24  25 0
 3-21G
 ****
 27  28  29  32  34  39  40  41  42  43  44  45  46  47  48  49 0
 3-21G
 ****


