%nproc=1
%NoSave
%Mem=1900MB
#P OB98/GEN NMR

erre ene a

0 1
  C      142.777     590.576     744.700
  O      142.837     591.641     745.626
  H      142.637     589.643     745.253
  H      143.715     590.510     744.141
  H      141.943     590.707     744.008
  P      142.879     593.145     745.071
  C      142.333     595.358     746.282
  O      141.929     594.016     746.027
  C      141.134     596.300     746.144
  O      140.676     596.306     744.768
  C      139.936     595.883     746.974
  O      140.126     596.192     748.348
  C      138.830     596.677     746.285
  O      138.799     598.036     746.743
  C      139.261     596.597     744.806
  N      138.489     595.603     744.056
  C      137.976     596.013     742.841
  O      138.135     597.136     742.368
  N      137.179     595.094     742.186
  C      136.769     593.903     742.696
  O      135.884     593.228     742.191
  C      137.399     593.486     743.962
  C      138.210     594.356     744.586
  O      142.630     593.302     743.608
  O      144.345     593.656     745.472
  H      144.918     593.627     744.684
  H      139.686     598.392     746.558
  H      136.770     595.400     741.320
  H      137.156     592.508     744.371
  H      138.666     594.087     745.534
  H      139.134     597.582     744.316
  H      137.848     596.230     746.482
  H      139.741     594.812     746.854
  H      141.472     597.320     746.393
  H      143.107     595.635     745.547
  H      142.771     595.415     747.283
  P      139.306     595.401     749.476
  C      139.051     595.462     752.037
  O      139.804     595.915     750.915
  O      139.288     593.912     749.305
  O      137.824     596.002     749.385
  H      137.189     595.270     749.328
  H      139.471     595.865     752.935
  H      139.080     594.393     752.078
  H      138.036     595.788     751.941

 6  7  8  9  10  11  12  13  14  15  16  27  31  32  33  34  35 0
 6-311+G(2d,p)
 ****
 36  37 0
 6-311+G(2d,p)
 ****
 1  2  3  4  5  17  18  19  20  21  22  23  24  25 0
 3-21G
 ****
 26  28  29  30  38  39  40  41  42  43  44  45 0
 3-21G
 ****


