%nproc=1
%NoSave
%Mem=1900MB
#P OB98/GEN NMR

erre ene a

0 1
  C      614.517    -530.685      39.047
  O      615.550    -531.107      38.177
  P      615.583    -530.479      36.699
  C      613.635    -530.238      34.945
  O      614.240    -530.989      35.982
  C      613.039    -531.175      33.888
  O      611.871    -531.844      34.426
  C      612.559    -530.485      32.620
  O      613.639    -530.138      31.768
  C      611.609    -531.524      32.050
  O      612.350    -532.550      31.361
  C      610.972    -532.103      33.334
  N      609.637    -531.566      33.606
  C      608.645    -531.878      32.685
  O      608.841    -532.566      31.689
  N      607.402    -531.356      32.948
  C      607.087    -530.504      33.975
  O      605.967    -530.032      34.129
  C      608.177    -530.188      34.899
  C      609.389    -530.724      34.674
  O      616.754    -531.346      36.039
  O      615.804    -529.006      36.691
  H      616.836    -532.227      36.458
  H      612.630    -533.192      32.039
  H      606.663    -531.588      32.304
  H      607.973    -529.513      35.715
  H      610.217    -530.486      35.339
  H      610.892    -533.192      33.253
  H      610.890    -531.101      31.340
  H      611.995    -529.576      32.890
  H      613.789    -531.940      33.653
  H      614.392    -529.600      34.484
  H      612.853    -529.597      35.374
  P      613.614    -528.647      31.139
  C      611.829    -527.297      29.785
  O      612.232    -528.534      30.337
  O      614.726    -528.768      29.995
  O      613.867    -527.565      32.139
  H      614.667    -529.610      29.512
  H      611.086    -527.481      29.004
  H      612.673    -526.759      29.348
  H      611.372    -526.679      30.567
  H      614.619    -531.182      39.989
  H      613.568    -530.927      38.617
  H      614.583    -529.627      39.192

 3  4  5  6  7  8  9  10  11  12  13  24  28  29  30  31  32 0
 6-311+G(2d,p)
 ****
 33  34 0
 6-311+G(2d,p)
 ****
 1  2  14  15  16  17  18  19  20  21  22  23  25  26  27 0
 3-21G
 ****
 35  36  37  38  39  40  41  42  43  44  45 0
 3-21G
 ****


