%nproc=1
%NoSave
%Mem=1900MB
#P OB98/GEN NMR

erre ene a

0 1
  C     -105.814     168.770    -142.919
  O     -106.316     167.561    -143.445
  H     -106.254     168.934    -141.932
  H     -106.097     169.602    -143.567
  H     -104.726     168.734    -142.814
  P     -105.630     166.935    -144.751
  C     -104.492     165.028    -143.437
  O     -105.434     165.373    -144.442
  C     -104.514     163.517    -143.192
  O     -105.885     163.125    -142.877
  C     -104.060     162.690    -144.412
  O     -103.380     161.520    -143.943
  C     -105.390     162.306    -145.027
  O     -105.274     161.199    -145.883
  C     -106.231     162.061    -143.778
  N     -107.657     162.034    -144.090
  C     -108.109     160.983    -144.879
  O     -107.377     160.101    -145.326
  N     -109.436     161.010    -145.211
  C     -110.308     162.020    -144.931
  O     -111.467     162.030    -145.322
  C     -109.761     163.134    -144.138
  C     -108.484     163.087    -143.754
  O     -104.406     167.631    -145.244
  O     -106.801     166.916    -145.842
  H     -106.143     160.982    -146.268
  H     -106.427     166.870    -146.742
  H     -109.781     160.249    -145.775
  H     -110.423     163.958    -143.912
  H     -108.042     163.897    -143.185
  H     -105.951     161.114    -143.298
  H     -105.790     163.142    -145.612
  H     -103.415     163.249    -145.093
  H     -103.905     163.288    -142.310
  H     -104.764     165.558    -142.518
  H     -103.492     165.344    -143.749
  P     -101.873     161.185    -144.381
  C     -100.914     160.892    -142.018
  O     -101.155     160.265    -143.274
  O     -101.071     162.380    -144.789
  O     -102.040     160.192    -145.629
  H     -101.435     160.472    -146.343
  H     -100.436     160.198    -141.359
  H     -101.844     161.206    -141.592
  H     -100.281     161.743    -142.160

 6  7  8  9  10  11  12  13  14  15  16  26  31  32  33  34  35 0
 6-311+G(2d,p)
 ****
 36  37 0
 6-311+G(2d,p)
 ****
 1  2  3  4  5  17  18  19  20  21  22  23  24  25 0
 3-21G
 ****
 27  28  29  30  38  39  40  41  42  43  44  45 0
 3-21G
 ****


