%nproc=1
%NoSave
%Mem=1900MB
#P OB98/GEN NMR

erre ene a

0 1
  C     -895.210    -303.736    -321.594
  O     -894.390    -304.835    -321.308
  H     -894.580    -302.888    -321.891
  H     -895.780    -303.450    -320.716
  H     -895.890    -303.972    -322.429
  P     -895.130    -306.207    -320.872
  C     -894.770    -307.240    -323.239
  O     -895.700    -306.858    -322.225
  C     -894.660    -308.759    -323.282
  O     -895.980    -309.359    -323.339
  C     -893.930    -309.292    -324.500
  O     -892.510    -309.161    -324.394
  C     -894.410    -310.722    -324.558
  O     -893.650    -311.556    -323.664
  C     -895.860    -310.601    -324.045
  N     -898.630    -313.686    -327.039
  C     -897.830    -313.928    -325.951
  N     -897.130    -313.052    -325.218
  C     -897.360    -311.801    -325.658
  C     -898.160    -311.386    -326.718
  C     -898.820    -312.401    -327.415
  N     -899.610    -312.158    -328.512
  N     -898.080    -310.027    -326.868
  C     -897.290    -309.608    -325.915
  N     -896.810    -310.642    -325.150
  O     -896.440    -305.658    -320.121
  O     -894.330    -307.119    -320.012
  H     -893.880    -312.472    -323.887
  H     -896.320    -305.706    -319.163
  H     -897.740    -314.981    -325.693
  H     -897.000    -308.575    -325.750
  H     -896.130    -311.405    -323.359
  H     -894.330    -311.144    -325.563
  H     -894.280    -308.760    -325.417
  H     -894.170    -309.092    -322.359
  H     -893.780    -306.798    -323.005
  H     -895.120    -306.840    -324.198
  H     -900.000    -312.940    -329.016
  H     -899.650    -311.211    -328.882
  P     -891.750    -308.230    -325.463
  C     -891.190    -306.320    -323.774
  O     -891.900    -306.723    -324.942
  O     -892.700    -308.262    -326.754
  O     -890.360    -308.662    -325.788
  H     -892.160    -308.227    -327.561
  H     -891.400    -305.292    -323.566
  H     -890.139    -306.444    -323.935
  H     -891.497    -306.922    -322.944

 6  7  8  9  10  11  12  13  14  15  25  28  32  33  34  35 0
 6-311+G(2d,p)
 ****
 36  37  40 0
 6-311+G(2d,p)
 ****
 1  2  3  4  5  16  17  18  19  20  21  22  23  24 0
 3-21G
 ****
 26  27  29  30  31  38  39 41  42  43  44  45  46  47  48 0
 3-21G
 ****


