%nproc=1
%NoSave
%Mem=1900MB
#P OB98/GEN NMR

erre ene a

0 1
  C      126.460     -64.540    -257.838
  O      126.147     -65.761    -258.482
  H      125.548     -64.131    -257.391
  H      126.846     -63.822    -258.568
  H      127.201     -64.701    -257.048
  P      127.387     -66.634    -258.996
  C      127.189     -66.049    -261.549
  O      127.934     -65.938    -260.341
  C      128.135     -66.163    -262.742
  O      128.951     -64.982    -262.862
  C      129.144     -67.292    -262.631
  O      128.563     -68.566    -262.811
  C      130.121     -66.904    -263.736
  O      129.687     -67.376    -265.016
  C      130.091     -65.361    -263.676
  N      131.336     -64.813    -263.176
  C      132.477     -65.131    -263.924
  O      132.377     -65.816    -264.948
  N      133.698     -64.698    -263.481
  C      133.783     -64.030    -262.370
  N      135.027     -63.663    -261.967
  C      132.606     -63.673    -261.549
  C      131.425     -64.090    -262.006
  O      126.674     -67.959    -259.536
  O      128.444     -66.883    -257.975
  H      128.809     -66.969    -265.178
  H      125.921     -67.787    -260.128
  H      132.728     -63.107    -260.639
  H      130.511     -63.875    -261.469
  H      129.906     -64.941    -264.677
  H      131.115     -67.334    -263.560
  H      129.677     -67.231    -261.669
  H      127.526     -66.257    -263.653
  H      135.810     -63.975    -262.530
  H      126.523     -65.186    -261.672
  H      135.221     -63.209    -261.085
  H      126.562     -66.941    -261.471
  P      129.086     -69.846    -262.001
  C      130.818     -70.637    -263.741
  O      130.617     -70.075    -262.450
  O      128.232     -71.058    -262.101
  O      129.261     -69.284    -260.511
  H      129.887     -68.545    -260.420
  H      131.867     -70.741    -263.925
  H      130.388     -69.995    -264.481
  H      130.351     -71.598    -263.788

 6  7  8  9  10  11  12  13  14  15  16  26  30  31  32  33  35 0
 6-311+G(2d,p)
 ****
 37  38 0
 6-311+G(2d,p)
 ****
 1  2  3  4  5  17  18  19  20  21  22  23  24  25 0
 3-21G
 ****
 27  28  29  34  36  39  40  41  42  43  44  45  46 0
 3-21G
 ****


