%nproc=1
%NoSave
%Mem=1900MB
#P OB98/GEN NMR

erre ene a

0 1
  C     -178.168     414.409     124.305
  O     -176.839     414.107     124.676
  H     -178.321     415.486     124.410
  H     -178.873     413.888     124.959
  H     -178.353     414.127     123.264
  P     -176.303     412.607     124.489
  C     -176.866     412.131     126.957
  O     -177.021     411.712     125.608
  C     -176.946     410.924     127.890
  O     -176.763     411.337     129.264
  C     -178.286     410.200     127.846
  O     -178.397     409.412     126.674
  C     -178.219     409.413     129.147
  O     -177.408     408.237     129.002
  C     -177.531     410.431     130.089
  N     -178.490     411.161     130.929
  C     -177.961     411.807     132.043
  O     -176.769     411.778     132.332
  N     -178.869     412.454     132.842
  C     -180.225     412.437     132.682
  O     -181.012     412.838     133.538
  C     -180.719     411.806     131.453
  C     -179.844     411.192     130.653
  O     -174.819     412.453     124.410
  O     -177.015     412.121     123.135
  H     -176.374     412.176     122.399
  H     -177.457     407.758     129.850
  H     -178.502     412.883     133.675
  H     -181.783     411.826     131.256
  H     -180.191     410.690     129.750
  H     -176.820     409.922     130.749
  H     -179.204     409.083     129.486
  H     -179.108     410.921     127.913
  H     -176.125     410.241     127.633
  H     -177.674     412.832     127.199
  H     -175.904     412.644     127.066
  P     -179.821     409.140     125.995
  C     -180.273     407.091     127.467
  O     -180.737     408.368     127.061
  O     -179.762     408.496     124.648
  O     -180.504     410.583     125.908
  H     -180.792     410.748     124.992
  H     -180.957     406.671     128.174
  H     -179.308     407.189     127.919
  H     -180.203     406.449     126.614

 6  7  8  9  10  11  12  13  14  15  16  27  31  32  33  34  35 0
 6-311+G(2d,p)
 ****
 36  37 0
 6-311+G(2d,p)
 ****
 1  2  3  4  5  17  18  19  20  21  22  23  24  25 0
 3-21G
 ****
 26  28  29  30  38  39  40  41  42  43  44  45 0
 3-21G
 ****


