%nproc=1
%NoSave
%Mem=1900MB
#P OB98/GEN NMR

erre ene a

0 1
  C      713.438     115.155     272.890
  O      712.050     115.115     273.167
  H      713.666     114.382     272.152
  H      714.009     114.951     273.799
  H      713.726     116.127     272.479
  P      711.413     116.266     274.083
  C      711.676     118.282     272.490
  O      712.139     117.641     273.671
  C      711.410     119.770     272.746
  O      712.658     120.398     273.192
  C      710.935     120.553     271.508
  O      710.093     121.615     271.980
  C      712.251     121.088     270.976
  O      712.075     122.074     269.984
  C      712.901     121.507     272.295
  N      714.327     121.798     272.227
  C      714.707     123.106     271.944
  O      713.930     124.046     271.748
  N      716.059     123.338     271.882
  C      717.043     122.410     272.080
  O      718.238     122.679     272.040
  C      716.577     121.046     272.370
  C      715.271     120.804     272.439
  O      711.379     115.986     275.548
  O      709.936     116.444     273.481
  H      709.293     115.992     274.057
  H      712.942     122.479     269.782
  H      716.353     124.280     271.673
  H      717.338     120.277     272.528
  H      714.896     119.804     272.656
  H      712.378     122.377     272.717
  H      712.814     120.275     270.501
  H      710.371     119.933     270.800
  H      710.699     119.865     273.575
  H      710.749     117.796     272.166
  H      712.426     118.166     271.703
  P      708.491     121.568     271.936
  C      707.907     120.250     274.102
  O      708.011     120.221     272.673
  O      707.909     121.738     270.572
  O      707.991     122.728     272.923
  H      707.109     123.042     272.646
  H      707.580     119.294     274.455
  H      707.200     120.999     274.393
  H      708.863     120.478     274.525

 6  7  8  9  10  11  12  13  14  15  16  27  31  32  33  34  35 0
 6-311+G(2d,p)
 ****
 36  37 0
 6-311+G(2d,p)
 ****
 1  2  3  4  5  17  18  19  20  21  22  23  24  25 0
 3-21G
 ****
 26  28  29  30  38  39  40  41  42  43  44  45 0
 3-21G
 ****


