%nproc=1
%NoSave
%Mem=1900MB
#P OB98/GEN NMR

erre ene a

0 1
  C      912.623    -357.041    -610.179
  O      912.624    -358.140    -611.065
  H      911.628    -356.573    -610.209
  H      913.362    -356.305    -610.499
  H      912.829    -357.361    -609.156
  P      913.763    -359.250    -610.918
  C      912.266    -361.249    -611.579
  O      913.400    -360.466    -611.910
  C      912.491    -362.744    -611.854
  O      912.433    -363.012    -613.265
  C      913.888    -363.201    -611.390
  O      913.989    -363.537    -610.016
  C      914.120    -364.427    -612.271
  O      913.520    -365.599    -611.701
  C      913.393    -364.039    -613.580
  N      916.738    -365.316    -617.217
  C      916.073    -366.132    -616.309
  N      916.406    -367.449    -616.338
  N      915.202    -365.694    -615.450
  C      915.038    -364.348    -615.463
  C      915.656    -363.448    -616.311
  C      916.581    -363.952    -617.303
  O      917.196    -363.271    -618.122
  N      915.252    -362.144    -616.040
  C      914.462    -362.272    -614.978
  N      914.288    -363.594    -614.619
  O      913.476    -359.889    -609.471
  O      915.173    -358.748    -611.007
  H      914.032    -365.853    -610.912
  H      914.298    -360.259    -609.102
  H      917.362    -365.725    -617.884
  H      913.979    -361.453    -614.465
  H      912.816    -364.880    -613.971
  H      915.184    -364.628    -612.403
  H      917.150    -367.812    -616.912
  H      914.646    -362.445    -611.640
  H      916.157    -368.024    -615.531
  H      911.699    -363.327    -611.372
  H      911.434    -360.884    -612.188
  H      911.988    -361.090    -610.535
  P      915.264    -363.085    -609.168
  C      913.877    -362.306    -607.114
  O      914.864    -363.172    -607.622
  O      915.341    -361.504    -609.447
  O      916.541    -363.766    -609.530
  H      915.969    -361.316    -610.172
  H      913.736    -362.499    -606.071
  H      912.957    -362.469    -607.635
  H      914.188    -361.291    -607.250

 6  7  8  9  10  11  12  13  14  15  26  29  33  34 0
 6-311+G(2d,p)
 ****
 36  38  39  40  41 0
 6-311+G(2d,p)
 ****
 1  2  3  4  5  16  17  18  19  20  21  22  23  24  25 0
 3-21G
 ****
 27  28  30  31  32  35  37  42  43  44  45  46  47 0
 3-21G
 ****
 48  49 0
 3-21G
 ****


