%nproc=1
%NoSave
%Mem=1900MB
#P OB98/GEN NMR

erre ene a

0 1
  C      229.970     144.747     -51.892
  O      230.339     146.054     -51.507
  H      230.607     144.433     -52.723
  H      228.931     144.739     -52.230
  H      230.099     144.040     -51.067
  P      229.762     146.653     -50.137
  C      227.344     146.807     -51.025
  O      228.220     146.215     -50.076
  C      226.000     146.075     -51.029
  O      225.356     146.296     -49.737
  C      225.034     146.570     -52.124
  O      224.250     145.461     -52.577
  C      224.166     147.536     -51.344
  O      222.944     147.786     -51.992
  C      224.040     146.807     -50.010
  N      223.557     147.697     -48.957
  C      222.208     148.031     -48.986
  O      221.425     147.629     -49.845
  N      221.790     148.914     -48.029
  C      222.590     149.565     -47.138
  O      222.173     150.406     -46.356
  C      224.019     149.212     -47.189
  C      224.429     148.304     -48.076
  O      230.006     148.108     -49.906
  O      230.416     145.737     -48.999
  H      222.311     147.070     -51.798
  H      230.404     146.201     -48.141
  H      220.811     149.157     -48.032
  H      224.685     149.722     -46.505
  H      225.476     148.033     -48.154
  H      223.361     145.950     -50.093
  H      224.682     148.494     -51.223
  H      225.546     147.037     -52.969
  H      226.179     144.997     -51.117
  H      227.810     146.736     -52.013
  H      227.196     147.863     -50.775
  P      224.849     144.353     -53.571
  C      224.991     145.510     -55.860
  O      225.723     145.049     -54.729
  O      223.838     143.376     -54.082
  O      225.948     143.587     -52.692
  H      225.845     142.624     -52.818
  H      225.664     145.953     -56.564
  H      224.272     146.238     -55.547
  H      224.487     144.685     -56.319

 6  7  8  9  10  11  12  13  14  15  16  26  31  32  33  34  35 0
 6-311+G(2d,p)
 ****
 36  37 0
 6-311+G(2d,p)
 ****
 1  2  3  4  5  17  18  19  20  21  22  23  24  25 0
 3-21G
 ****
 27  28  29  30  38  39  40  41  42  43  44  45 0
 3-21G
 ****


