%nproc=1
%NoSave
%Mem=1900MB
#P OB98/GEN NMR

erre ene a

0 1
  C     -914.801     505.467     398.122
  O     -916.184     505.719     398.245
  H     -914.668     504.495     397.642
  H     -914.334     505.441     399.109
  H     -914.325     506.235     397.499
  P     -916.632     507.168     398.785
  C     -917.283     506.072     401.048
  O     -916.567     507.102     400.382
  C     -917.263     506.290     402.563
  O     -915.987     505.837     403.075
  C     -917.445     507.758     402.974
  O     -918.251     507.800     404.159
  C     -916.032     508.222     403.303
  O     -916.009     509.311     404.224
  C     -915.406     506.920     403.835
  N     -913.940     506.950     403.708
  C     -913.268     507.881     404.501
  O     -913.899     508.642     405.249
  N     -911.904     507.974     404.382
  C     -911.288     507.271     403.498
  N     -909.937     507.435     403.419
  C     -911.970     506.317     402.595
  C     -913.280     506.203     402.763
  O     -918.202     507.204     398.478
  O     -915.906     508.322     398.175
  H     -915.073     509.494     404.464
  H     -918.501     508.115     398.283
  H     -911.405     505.767     401.852
  H     -913.870     505.538     402.146
  H     -915.667     506.770     404.893
  H     -915.524     508.537     402.384
  H     -917.906     508.371     402.197
  H     -918.040     505.659     403.007
  H     -909.500     508.105     404.038
  H     -916.811     505.113     400.817
  H     -909.349     506.960     402.728
  H     -918.316     506.052     400.676
  P     -919.765     508.304     403.985
  C     -919.930     510.629     405.142
  O     -919.753     509.912     403.929
  O     -920.432     507.977     405.406
  O     -920.493     507.639     402.865
  H     -921.055     507.231     405.317
  H     -919.898     511.680     404.943
  H     -919.148     510.372     405.826
  H     -920.877     510.376     405.571

 6  7  8  9  10  11  12  13  14  15  16  26  30  31  32  33  35 0
 6-311+G(2d,p)
 ****
 37  38 0
 6-311+G(2d,p)
 ****
 1  2  3  4  5  17  18  19  20  21  22  23  24  25 0
 3-21G
 ****
 27  28  29  34  36  39  40  41  42  43  44  45  46 0
 3-21G
 ****


