%nproc=1
%NoSave
%Mem=1900MB
#P OB98/GEN NMR

erre ene a

0 1
  C      680.156    -304.764     306.702
  O      680.570    -306.116     306.924
  P      680.423    -307.254     305.802
  C      682.715    -308.447     305.981
  O      681.310    -308.521     306.226
  C      683.460    -309.646     306.581
  O      683.496    -309.561     308.020
  C      682.848    -311.003     306.263
  O      683.143    -311.391     304.921
  C      683.498    -311.874     307.330
  O      684.830    -312.282     306.936
  C      683.573    -310.900     308.528
  N      682.508    -311.147     309.516
  C      682.456    -312.437     310.053
  O      683.246    -313.306     309.677
  N      681.500    -312.705     311.009
  C      680.623    -311.805     311.329
  N      679.706    -312.119     312.279
  C      680.590    -310.468     310.696
  C      681.557    -310.212     309.809
  O      680.668    -306.788     304.409
  O      678.916    -307.796     305.963
  H      684.707    -312.881     306.171
  H      678.591    -308.096     305.095
  H      679.823    -309.740     310.974
  H      681.589    -309.246     309.302
  H      684.536    -310.978     309.041
  H      682.929    -312.792     307.535
  H      681.778    -310.978     306.424
  H      684.509    -309.599     306.218
  H      679.766    -313.045     312.695
  H      683.087    -307.515     306.445
  H      678.996    -311.491     312.596
  H      682.881    -308.397     304.895
  P      682.300    -312.575     304.247
  C      681.270    -311.052     302.463
  O      682.074    -312.194     302.707
  O      681.085    -313.037     304.986
  O      683.379    -313.780     304.154
  H      682.908    -314.625     304.234
  H      681.505    -310.673     301.461
  H      681.441    -310.270     303.207
  H      680.209    -311.356     302.485
  H      680.347    -304.184     307.580
  H      679.109    -304.743     306.481
  H      680.702    -304.354     305.878

 3  4  5  6  7  8  9  10  11  12  13  23  27  28  29  30  32 0
 6-311+G(2d,p)
 ****
 34  35 0
 6-311+G(2d,p)
 ****
 1  2  14  15  16  17  18  19  20  21  22  24  25  26 0
 3-21G
 ****
 31  33  36  37  38  39  40  41  42  43  44  45  46 0
 3-21G
 ****


