%nproc=1
%NoSave
%Mem=1900MB
#P OB98/GEN NMR

erre ene a

0 1
  C       72.938     161.398     220.533
  O       73.260     162.781     220.729
  P       74.804     163.199     220.807
  C       74.480     165.210     219.189
  O       74.935     164.762     220.452
  C       74.808     166.701     218.997
  O       74.226     167.510     220.041
  C       76.298     167.000     219.035
  O       76.923     166.747     217.777
  C       76.282     168.502     219.321
  O       76.023     169.227     218.102
  C       75.087     168.636     220.280
  N       77.323     171.330     224.035
  C       77.121     171.609     222.730
  N       76.543     170.828     221.795
  C       76.126     169.669     222.326
  C       76.257     169.244     223.639
  C       76.892     170.144     224.525
  N       77.092     169.861     225.859
  N       75.714     167.987     223.812
  C       75.256     167.660     222.617
  N       75.486     168.633     221.689
  O       75.438     162.478     219.522
  O       75.486     162.767     222.068
  H       75.096     169.020     217.847
  H       76.355     162.192     219.720
  H       77.478     172.570     222.384
  H       74.745     166.727     222.393
  H       74.519     169.552     220.104
  H       77.237     168.867     219.703
  H       76.788     166.470     219.866
  H       74.385     167.020     218.026
  H       73.401     165.056     219.088
  H       77.527     170.564     226.440
  H       76.750     168.981     226.222
  H       74.951     164.603     218.398
  P       78.123     165.695     217.756
  C       77.190     164.883     215.475
  O       78.329     165.282     216.228
  O       77.486     164.394     218.434
  O       79.347     166.155     218.486
  H       78.177     163.885     218.903
  H       77.440     164.936     214.407
  H       76.325     165.512     215.680
  H       76.952     163.833     215.731
  H       71.875     161.280     220.503
  H       73.338     160.821     221.340
  H       73.361     161.061     219.610

 3  4  5  6  7  8  9  10  11  12  22  25  29  30  31  32 0
 6-311+G(2d,p)
 ****
 33  36  37 0
 6-311+G(2d,p)
 ****
 1  2  13  14  15  16  17  18  19  20  21  23  24  26 0
 3-21G
 ****
 27  28  34  35  38  39  40  41  42  43  44  45  46  47  48 0
 3-21G
 ****


