%nproc=1
%NoSave
%Mem=1900MB
#P OB98/GEN NMR

erre ene a

0 1
  C      247.144     304.638      48.879
  O      245.741     304.602      48.719
  H      247.607     304.769      47.897
  H      247.499     303.698      49.312
  H      247.431     305.476      49.520
  P      244.880     304.352      50.051
  C      244.647     305.649      52.284
  O      245.467     305.353      51.161
  C      245.506     306.053      53.481
  O      246.313     304.942      53.928
  C      246.462     307.206      53.208
  O      245.806     308.456      53.345
  C      247.520     306.977      54.277
  O      247.077     307.481      55.558
  C      247.623     305.444      54.299
  N      252.461     304.029      53.962
  C      251.779     304.634      54.999
  N      252.497     304.930      56.104
  N      250.508     304.932      54.955
  C      249.928     304.632      53.771
  C      250.495     304.038      52.666
  C      251.890     303.661      52.748
  O      252.530     303.052      51.895
  N      249.577     303.881      51.657
  C      248.468     304.410      52.141
  N      248.633     304.886      53.419
  O      245.379     302.915      50.552
  O      243.400     304.375      49.873
  H      246.723     308.379      55.439
  H      244.616     302.428      50.916
  H      253.431     303.795      54.062
  H      247.526     304.464      51.615
  H      247.844     305.067      55.303
  H      248.448     307.502      54.046
  H      253.504     304.992      56.087
  H      246.926     307.111      52.215
  H      252.011     305.439      56.833
  H      244.825     306.307      54.304
  H      244.064     304.758      52.539
  H      243.965     306.465      52.031
  P      246.380     309.712      52.530
  C      246.241     310.384      50.027
  O      246.371     309.331      50.971
  O      247.935     309.700      52.910
  O      245.756     311.018      52.878
  H      248.127     310.420      53.543
  H      246.251     309.979      49.037
  H      247.056     311.068      50.141
  H      245.318     310.899      50.192

 6  7  8  9  10  11  12  13  14  15  26  29  33  34 0
 6-311+G(2d,p)
 ****
 36  38  39  40  41 0
 6-311+G(2d,p)
 ****
 1  2  3  4  5  16  17  18  19  20  21  22  23  24  25 0
 3-21G
 ****
 27  28  30  31  32  35  37  42  43  44  45  46  47 0
 3-21G
 ****
 48  49 0
 3-21G
 ****


