%nproc=1
%NoSave
%Mem=1900MB
#P OB98/GEN NMR

erre ene a

0 1
  C     -220.349     -15.603      55.711
  O     -221.072     -16.639      55.083
  H     -220.965     -15.183      56.510
  H     -220.129     -14.815      54.985
  H     -219.416     -15.972      56.146
  P     -220.274     -17.705      54.195
  C     -221.641     -17.236      52.057
  O     -221.256     -18.203      53.027
  C     -222.543     -17.838      50.978
  O     -221.864     -18.919      50.305
  C     -223.822     -18.440      51.560
  O     -224.880     -17.524      51.781
  C     -224.199     -19.464      50.491
  O     -224.962     -18.848      49.440
  C     -222.836     -19.924      49.968
  N     -222.277     -24.940      49.173
  C     -222.817     -23.982      48.336
  N     -223.322     -24.428      47.166
  N     -222.867     -22.711      48.636
  C     -222.411     -22.428      49.879
  C     -221.869     -23.292      50.801
  C     -221.765     -24.691      50.439
  O     -221.303     -25.581      51.146
  N     -221.510     -22.636      51.956
  C     -221.907     -21.395      51.760
  N     -222.435     -21.211      50.503
  O     -220.185     -18.994      55.145
  O     -218.910     -17.273      53.746
  H     -225.694     -18.349      49.847
  H     -219.406     -19.530      54.908
  H     -222.238     -25.900      48.879
  H     -221.811     -20.589      52.479
  H     -222.836     -20.015      48.875
  H     -224.815     -20.266      50.901
  H     -223.410     -25.407      46.943
  H     -223.602     -18.979      52.488
  H     -223.955     -23.810      46.652
  H     -222.764     -17.073      50.223
  H     -220.721     -16.859      51.606
  H     -222.135     -16.390      52.542
  P     -226.164     -17.972      52.626
  C     -227.834     -17.580      50.669
  O     -227.431     -17.236      51.978
  O     -225.952     -17.211      54.018
  O     -226.313     -19.443      52.814
  H     -225.540     -17.809      54.670
  H     -228.689     -16.998      50.395
  H     -228.084     -18.620      50.635
  H     -227.034     -17.383      49.986

 6  7  8  9  10  11  12  13  14  15  26  29  33  34 0
 6-311+G(2d,p)
 ****
 36  38  39  40  41 0
 6-311+G(2d,p)
 ****
 1  2  3  4  5  16  17  18  19  20  21  22  23  24  25 0
 3-21G
 ****
 27  28  30  31  32  35  37  42  43  44  45  46  47 0
 3-21G
 ****
 48  49 0
 3-21G
 ****


