%nproc=1
%NoSave
%Mem=1900MB
#P OB98/GEN NMR

erre ene a

0 1
  C      297.734     415.646    -457.997
  O      298.124     416.021    -456.674
  P      297.548     415.197    -455.415
  C      299.499     413.591    -454.855
  O      298.196     413.735    -455.410
  C      299.392     413.302    -453.346
  O      298.795     411.998    -453.097
  C      300.762     413.239    -452.659
  O      301.462     414.457    -452.548
  C      300.438     412.487    -451.384
  O      299.926     413.367    -450.380
  C      299.355     411.503    -451.862
  N      299.864     410.134    -452.015
  C      300.288     409.494    -450.869
  O      300.284     410.029    -449.762
  N      300.741     408.210    -451.027
  C      300.855     407.532    -452.217
  O      301.296     406.398    -452.307
  C      300.414     408.278    -453.412
  C      299.955     409.520    -453.271
  O      296.066     415.260    -455.228
  O      298.293     415.905    -454.174
  H      299.324     414.000    -450.815
  H      297.641     415.999    -453.445
  H      301.052     407.725    -450.202
  H      300.498     407.785    -454.371
  H      299.625     410.093    -454.136
  H      298.528     411.458    -451.142
  H      301.339     412.015    -450.966
  H      301.403     412.587    -453.272
  H      298.750     414.059    -452.882
  H      300.072     414.496    -455.029
  H      300.016     412.785    -455.373
  P      303.029     414.547    -452.215
  C      303.784     415.202    -454.611
  O      303.848     414.253    -453.562
  O      303.515     413.859    -450.971
  O      303.235     416.124    -452.041
  H      303.935     416.274    -451.366
  H      304.377     414.836    -455.452
  H      304.174     416.162    -454.290
  H      302.750     415.321    -454.947
  H      298.206     416.294    -458.705
  H      296.671     415.727    -458.092
  H      298.033     414.636    -458.184

 3  4  5  6  7  8  9  10  11  12  13  23  28  29  30  31  32 0
 6-311+G(2d,p)
 ****
 33  34 0
 6-311+G(2d,p)
 ****
 1  2  14  15  16  17  18  19  20  21  22  24  25  26  27 0
 3-21G
 ****
 35  36  37  38  39  40  41  42  43  44  45 0
 3-21G
 ****


