%nproc=1
%NoSave
%Mem=1900MB
#P OB98/GEN NMR

erre ene a

0 1
  C      462.358     781.192     417.123
  O      461.291     781.400     416.191
  P      460.579     782.834     416.114
  C      459.310     782.630     418.345
  O      459.207     782.782     416.945
  C      458.033     781.990     418.928
  O      456.957     782.966     418.959
  C      457.543     780.786     418.110
  O      457.305     779.627     418.904
  C      456.345     781.325     417.353
  O      455.437     780.317     416.958
  C      455.815     782.407     418.296
  N      455.027     783.417     417.588
  C      453.709     783.102     417.302
  O      453.209     781.995     417.550
  N      452.977     784.071     416.659
  C      453.451     785.263     416.216
  O      452.775     786.084     415.608
  C      454.877     785.531     416.497
  C      455.591     784.605     417.150
  O      460.483     783.432     414.751
  O      461.508     783.744     417.064
  H      455.952     779.555     416.587
  H      461.585     784.625     416.650
  H      452.003     783.865     416.464
  H      455.305     786.455     416.131
  H      456.636     784.763     417.355
  H      455.163     781.970     419.066
  H      456.704     781.816     416.434
  H      458.312     780.454     417.392
  H      458.258     781.690     419.952
  H      459.449     783.610     418.808
  H      460.204     782.051     418.583
  P      458.102     778.240     418.774
  C      456.032     776.957     417.889
  O      457.051     777.039     418.873
  O      459.300     778.107     419.653
  O      458.549     778.228     417.234
  H      459.454     777.879     417.157
  H      455.219     776.352     418.289
  H      456.432     776.473     416.992
  H      455.645     777.939     417.632
  H      462.713     780.186     417.040
  H      462.001     781.363     418.117
  H      463.156     781.871     416.909

 3  4  5  6  7  8  9  10  11  12  13  23  28  29  30  31  32 0
 6-311+G(2d,p)
 ****
 33  34 0
 6-311+G(2d,p)
 ****
 1  2  14  15  16  17  18  19  20  21  22  24  25  26  27 0
 3-21G
 ****
 35  36  37  38  39  40  41  42  43  44  45 0
 3-21G
 ****


