%nproc=1
%NoSave
%Mem=1900MB
#P OB98/GEN NMR

erre ene a

0 1
  C     -148.064    -806.805    1151.676
  O     -147.204    -807.696    1152.336
  P     -146.316    -808.750    1151.476
  C     -146.245    -810.367    1153.498
  O     -146.545    -810.211    1152.101
  C     -146.314    -811.821    1153.923
  O     -147.709    -812.281    1153.956
  C     -145.599    -812.771    1152.967
  O     -144.197    -812.680    1153.103
  C     -146.192    -814.112    1153.417
  O     -145.556    -814.617    1154.605
  C     -147.667    -813.723    1153.728
  N     -148.594    -814.111    1152.688
  C     -149.563    -815.035    1153.052
  O     -149.550    -815.544    1154.184
  N     -150.536    -815.409    1152.130
  C     -150.443    -814.940    1150.902
  N     -151.443    -815.281    1150.029
  C     -149.318    -814.103    1150.413
  C     -148.445    -813.706    1151.362
  O     -144.878    -808.387    1151.263
  O     -147.092    -808.848    1150.059
  H     -146.441    -808.735    1149.349
  H     -146.049    -815.445    1154.849
  H     -149.257    -813.834    1149.371
  H     -147.619    -813.087    1151.123
  H     -147.993    -814.188    1154.685
  H     -146.119    -814.884    1152.644
  H     -145.895    -812.578    1151.937
  H     -145.905    -811.910    1154.952
  H     -152.191    -815.875    1150.383
  H     -146.961    -809.782    1154.085
  H     -151.637    -814.745    1149.177
  H     -145.238    -809.948    1153.721
  P     -143.331    -812.856    1151.756
  C     -141.298    -813.546    1153.167
  O     -142.130    -813.843    1152.072
  O     -142.633    -811.423    1151.568
  O     -144.162    -813.223    1150.522
  H     -142.603    -811.163    1150.631
  H     -140.761    -814.469    1153.472
  H     -141.902    -813.211    1154.039
  H     -140.559    -812.789    1152.916
  H     -148.563    -806.192    1152.397
  H     -148.788    -807.358    1151.115
  H     -147.496    -806.186    1151.013

 3  4  5  6  7  8  9  10  11  12  13  24  27  28  29  30  32 0
 6-311+G(2d,p)
 ****
 34  35 0
 6-311+G(2d,p)
 ****
 1  2  14  15  16  17  18  19  20  21  22  23  25  26 0
 3-21G
 ****
 31  33  36  37  38  39  40  41  42  43  44  45  46 0
 3-21G
 ****


