%nproc=1
%NoSave
%Mem=1900MB
#P OB98/GEN NMR

erre ene a

0 1
  C      -99.405     133.944    -341.426
  O     -100.439     134.201    -342.361
  P     -100.367     135.371    -343.445
  C     -101.099     133.860    -345.428
  O     -101.380     135.010    -344.644
  C     -102.170     133.590    -346.506
  O     -103.397     133.179    -345.871
  C     -102.487     134.893    -347.261
  O     -101.667     135.312    -348.334
  C     -103.982     134.808    -347.578
  O     -104.224     134.350    -348.917
  C     -104.497     133.779    -346.566
  N     -109.352     134.722    -345.379
  C     -108.836     133.866    -346.338
  N     -109.741     133.342    -347.206
  N     -107.563     133.571    -346.443
  C     -106.786     134.247    -345.565
  C     -107.174     135.102    -344.563
  C     -108.586     135.387    -344.432
  O     -109.071     136.203    -343.650
  N     -106.093     135.665    -343.909
  C     -105.045     135.168    -344.548
  N     -105.418     134.329    -345.581
  O      -99.003     135.891    -343.790
  O     -101.150     136.561    -342.686
  H     -105.145     134.575    -349.143
  H     -100.732     137.409    -342.945
  H     -110.332     134.974    -345.393
  H     -104.026     135.407    -344.319
  H     -105.031     132.963    -347.078
  H     -104.454     135.796    -347.493
  H     -110.692     133.658    -347.245
  H     -102.406     135.708    -346.528
  H     -109.379     132.851    -348.019
  H     -101.875     132.768    -347.155
  H     -101.022     133.010    -344.750
  H     -100.127     133.974    -345.911
  P     -101.236     136.811    -348.672
  C      -98.748     136.727    -349.256
  O     -100.074     136.770    -349.764
  O     -100.477     137.304    -347.345
  O     -102.364     137.747    -348.988
  H     -100.484     138.293    -347.307
  H      -98.046     137.002    -350.048
  H      -98.525     135.707    -348.930
  H      -98.629     137.421    -348.418
  H      -99.681     133.115    -340.808
  H      -99.253     134.809    -340.816
  H      -98.501     133.713    -341.949

 3  4  5  6  7  8  9  10  11  12  23  26  30  31 0
 6-311+G(2d,p)
 ****
 33  35  36  37  38 0
 6-311+G(2d,p)
 ****
 1  2  13  14  15  16  17  18  19  20  21  22  24  25 0
 3-21G
 ****
 27  28  29  32  34  39  40  41  42  43  44  45  46  47  48  49 0
 3-21G
 ****


