%nproc=1
%NoSave
%Mem=1900MB
#P OB98/GEN NMR

erre ene a

0 1
  C     -444.660    -615.832      43.590
  O     -445.201    -614.845      44.445
  H     -444.424    -616.717      44.187
  H     -443.738    -615.468      43.128
  H     -445.379    -616.112      42.816
  P     -445.788    -613.501      43.796
  C     -444.893    -611.629      42.270
  O     -444.571    -612.770      43.052
  C     -443.613    -610.997      41.719
  O     -443.041    -611.856      40.710
  C     -443.839    -609.655      41.031
  O     -444.044    -608.619      41.968
  C     -442.565    -609.544      40.212
  O     -441.479    -609.060      41.010
  C     -442.319    -611.010      39.787
  N     -442.733    -611.260      38.406
  C     -441.867    -612.028      37.636
  O     -440.812    -612.495      38.058
  N     -442.230    -612.187      36.329
  C     -443.266    -611.563      35.699
  O     -443.407    -611.541      34.482
  C     -444.179    -610.818      36.579
  C     -443.873    -610.686      37.869
  O     -446.582    -612.634      44.715
  O     -446.685    -614.037      42.577
  H     -447.626    -614.011      42.835
  H     -441.784    -608.212      41.390
  H     -441.579    -612.714      35.746
  H     -445.060    -610.366      36.133
  H     -444.511    -610.111      38.532
  H     -441.256    -611.266      39.892
  H     -442.687    -608.862      39.369
  H     -444.691    -609.728      40.351
  H     -442.896    -610.904      42.540
  H     -445.409    -610.900      42.910
  H     -445.562    -611.927      41.457
  P     -444.666    -607.222      41.501
  C     -444.332    -605.839      39.361
  O     -443.693    -606.578      40.402
  O     -445.063    -606.299      42.606
  O     -445.944    -607.644      40.630
  H     -446.723    -607.132      40.946
  H     -443.592    -605.457      38.689
  H     -444.881    -605.025      39.787
  H     -445.002    -606.481      38.827

 6  7  8  9  10  11  12  13  14  15  16  27  31  32  33  34  35 0
 6-311+G(2d,p)
 ****
 36  37 0
 6-311+G(2d,p)
 ****
 1  2  3  4  5  17  18  19  20  21  22  23  24  25 0
 3-21G
 ****
 26  28  29  30  38  39  40  41  42  43  44  45 0
 3-21G
 ****


