%nproc=1
%NoSave
%Mem=1900MB
#P OB98/GEN NMR

erre ene a

0 1
  C      -59.838      -0.254     101.072
  O      -61.176      -0.524     101.432
  H      -59.818       0.080     100.032
  H      -59.238      -1.164     101.160
  H      -59.410       0.531     101.700
  P      -61.535      -0.719     102.980
  C      -61.314      -2.606     104.729
  O      -61.081      -2.205     103.387
  C      -60.592      -3.925     105.035
  O      -61.210      -4.989     104.266
  C      -59.117      -3.868     104.615
  O      -58.301      -4.732     105.402
  C      -59.156      -4.391     103.188
  O      -57.901      -4.915     102.748
  C      -60.266      -5.436     103.276
  N      -60.178      -7.774      98.744
  C      -59.173      -7.653      99.685
  N      -57.988      -8.233      99.373
  N      -59.307      -7.002     100.810
  C      -60.518      -6.412     100.952
  C      -61.588      -6.442     100.084
  C      -61.437      -7.194      98.855
  O      -62.289      -7.314      97.980
  N      -62.648      -5.716     100.567
  C      -62.224      -5.245     101.722
  N      -60.946      -5.661     102.014
  O      -63.134      -0.835     102.986
  O      -61.059       0.367     103.896
  H      -57.985      -5.109     101.796
  H      -63.488      -0.609     103.865
  H      -60.031      -8.309      97.907
  H      -62.802      -4.618     102.392
  H      -59.862      -6.400     103.609
  H      -59.405      -3.557     102.524
  H      -57.787      -8.566      98.444
  H      -58.707      -2.861     104.653
  H      -57.170      -7.895      99.889
  H      -60.716      -4.185     106.093
  H      -62.394      -2.723     104.845
  H      -60.998      -1.823     105.420
  P      -57.614      -4.142     106.725
  C      -55.228      -3.191     107.371
  O      -56.145      -3.615     106.386
  O      -57.357      -5.434     107.630
  O      -58.434      -3.112     107.439
  H      -57.891      -5.390     108.445
  H      -54.317      -2.885     106.902
  H      -55.029      -3.999     108.044
  H      -55.643      -2.368     107.914

 6  7  8  9  10  11  12  13  14  15  26  29  33  34 0
 6-311+G(2d,p)
 ****
 36  38  39  40  41 0
 6-311+G(2d,p)
 ****
 1  2  3  4  5  16  17  18  19  20  21  22  23  24  25 0
 3-21G
 ****
 27  28  30  31  32  35  37  42  43  44  45  46  47 0
 3-21G
 ****
 48  49 0
 3-21G
 ****


