%nproc=1
%NoSave
%Mem=1900MB
#P OB98/GEN NMR

erre ene a

0 1
  C      -68.143     -31.089    -310.121
  O      -69.493     -31.085    -309.701
  H      -67.536     -30.606    -309.352
  H      -68.030     -30.533    -311.055
  H      -67.787     -32.115    -310.254
  P      -70.590     -31.739    -310.668
  C      -70.654     -31.169    -313.186
  O      -70.810     -30.686    -311.858
  C      -71.104     -30.108    -314.184
  O      -70.574     -28.818    -313.822
  C      -70.651     -30.377    -315.619
  O      -71.508     -31.319    -316.242
  C      -70.763     -28.981    -316.209
  O      -72.146     -28.676    -316.475
  C      -70.241     -28.113    -315.049
  N      -66.543     -25.053    -316.685
  C      -67.904     -25.004    -316.920
  N      -68.334     -24.025    -317.747
  N      -68.762     -25.853    -316.412
  C      -68.179     -26.818    -315.664
  C      -66.840     -26.979    -315.373
  C      -65.911     -26.001    -315.894
  O      -64.699     -25.998    -315.694
  N      -66.622     -28.114    -314.635
  C      -67.829     -28.620    -314.451
  N      -68.807     -27.876    -315.069
  O      -71.864     -32.190    -310.018
  O      -69.815     -32.945    -311.376
  H      -72.601     -28.670    -315.612
  H      -69.935     -33.779    -310.887
  H      -65.935     -24.381    -317.120
  H      -68.046     -29.511    -313.879
  H      -70.730     -27.132    -315.011
  H      -70.220     -28.863    -317.145
  H      -67.705     -23.543    -318.374
  H      -69.600     -30.689    -315.661
  H      -69.321     -24.004    -317.973
  H      -72.197     -30.038    -314.127
  H      -71.262     -32.073    -313.283
  H      -69.605     -31.433    -313.376
  P      -70.973     -32.272    -317.422
  C      -71.024     -32.140    -320.001
  O      -71.436     -31.550    -318.777
  O      -71.384     -33.699    -317.307
  O      -69.394     -32.052    -317.433
  H      -68.904     -32.660    -316.823
  H      -71.399     -31.562    -320.820
  H      -71.408     -33.137    -320.063
  H      -69.955     -32.166    -320.042

 6  7  8  9  10  11  12  13  14  15  26  29  33  34 0
 6-311+G(2d,p)
 ****
 36  38  39  40  41 0
 6-311+G(2d,p)
 ****
 1  2  3  4  5  16  17  18  19  20  21  22  23  24  25 0
 3-21G
 ****
 27  28  30  31  32  35  37  42  43  44  45  46  47 0
 3-21G
 ****
 48  49 0
 3-21G
 ****


