%nproc=1
%NoSave
%Mem=1900MB
#P OB98/GEN NMR

erre ene a

0 1
  C      223.854      97.360    -270.382
  O      224.048      98.571    -271.121
  P      224.916      99.706    -270.392
  C      227.376      98.953    -270.731
  O      226.325      99.809    -271.159
  C      228.720      99.395    -271.329
  O      228.793      99.057    -272.746
  C      228.982     100.909    -271.210
  O      230.395     101.067    -271.007
  C      228.575     101.407    -272.590
  O      229.062     102.710    -272.879
  C      229.131     100.277    -273.450
  N      229.984     101.781    -278.256
  C      230.685     101.961    -277.114
  N      230.388     101.528    -275.868
  C      229.234     100.842    -275.869
  C      228.402     100.576    -276.950
  C      228.820     101.082    -278.200
  N      228.101     100.923    -279.362
  N      227.286      99.857    -276.548
  C      227.414      99.758    -275.235
  N      228.606     100.258    -274.797
  O      225.294      99.042    -268.980
  O      224.192     101.004    -270.231
  H      228.676     103.027    -273.723
  H      224.696      99.369    -268.282
  H      231.610     102.527    -277.217
  H      226.678      99.334    -274.560
  H      230.227     100.315    -273.530
  H      227.482     101.442    -272.655
  H      228.442     101.388    -270.389
  H      229.523      98.841    -270.819
  H      227.172      97.924    -271.033
  H      228.481     101.327    -280.207
  H      227.223     100.420    -279.356
  H      227.410      98.951    -269.634
  P      230.900     102.062    -269.852
  C      231.594     100.399    -268.022
  O      232.041     101.237    -269.076
  O      229.678     101.963    -268.817
  O      231.230     103.457    -270.282
  H      229.451     101.033    -268.629
  H      232.451      99.839    -267.636
  H      230.842      99.696    -268.390
  H      231.177     101.008    -267.215
  H      223.265      96.679    -270.961
  H      223.348      97.579    -269.465
  H      224.804      96.917    -270.168

 3  4  5  6  7  8  9  10  11  12  22  25  29  30  31  32 0
 6-311+G(2d,p)
 ****
 33  36  37 0
 6-311+G(2d,p)
 ****
 1  2  13  14  15  16  17  18  19  20  21  23  24  26 0
 3-21G
 ****
 27  28  34  35  38  39  40  41  42  43  44  45  46  47  48 0
 3-21G
 ****


