%nproc=1
%NoSave
%Mem=1900MB
#P OB98/GEN NMR

erre ene a

0 1
  C      190.909    -187.486     148.943
  O      190.554    -188.641     149.676
  H      191.956    -187.573     148.640
  H      190.796    -186.589     149.557
  H      190.292    -187.404     148.044
  P      189.096    -188.708     150.335
  C      187.482    -189.170     148.367
  O      188.233    -189.720     149.440
  C      186.329    -190.102     147.974
  O      185.409    -189.374     147.113
  C      186.781    -191.355     147.202
  O      185.848    -192.401     147.505
  C      186.623    -190.894     145.768
  O      186.665    -191.976     144.871
  C      185.313    -190.106     145.872
  N      185.097    -189.228     144.733
  C      184.415    -189.782     143.647
  O      184.043    -190.955     143.678
  N      184.196    -189.003     142.538
  C      184.679    -187.800     142.492
  N      184.442    -187.086     141.360
  C      185.457    -187.198     143.596
  C      185.622    -187.959     144.676
  O      188.442    -187.393     150.599
  O      189.322    -189.529     151.692
  H      187.577    -192.338     144.799
  H      189.300    -188.919     152.453
  H      185.853    -186.198     143.500
  H      186.180    -187.603     145.538
  H      184.455    -190.785     145.956
  H      187.442    -190.225     145.486
  H      187.796    -191.668     147.455
  H      185.771    -190.374     148.878
  H      183.914    -187.542     140.624
  H      188.162    -189.040     147.521
  H      184.784    -186.150     141.202
  H      187.081    -188.189     148.651
  P      186.305    -193.870     147.961
  C      185.773    -193.427     150.447
  O      185.544    -194.264     149.316
  O      187.787    -194.054     148.020
  O      185.664    -194.860     146.875
  H      186.244    -195.636     146.772
  H      185.212    -193.794     151.281
  H      185.463    -192.428     150.220
  H      186.815    -193.431     150.688

 6  7  8  9  10  11  12  13  14  15  16  26  30  31  32  33  35 0
 6-311+G(2d,p)
 ****
 37  38 0
 6-311+G(2d,p)
 ****
 1  2  3  4  5  17  18  19  20  21  22  23  24  25 0
 3-21G
 ****
 27  28  29  34  36  39  40  41  42  43  44  45  46 0
 3-21G
 ****


