%nproc=1
%NoSave
%Mem=1900MB
#P OB98/GEN NMR

erre ene a

0 1
  C      316.303    -451.592     437.813
  O      317.078    -450.856     438.739
  H      316.963    -451.976     437.030
  H      315.560    -450.934     437.351
  H      315.809    -452.431     438.303
  P      316.346    -450.327     440.066
  C      317.093    -450.597     442.541
  O      317.467    -450.249     441.215
  C      318.267    -450.375     443.499
  O      319.282    -451.386     443.237
  C      318.922    -449.000     443.356
  O      319.289    -448.534     444.659
  C      320.179    -449.283     442.543
  O      321.207    -448.316     442.764
  C      320.526    -450.706     443.003
  N      321.337    -451.404     442.005
  C      322.729    -451.226     442.093
  O      323.208    -450.509     442.980
  N      323.530    -451.823     441.157
  C      323.000    -452.455     440.160
  N      323.844    -453.000     439.247
  C      321.533    -452.609     439.986
  C      320.774    -452.067     440.943
  O      315.450    -451.573     440.519
  O      315.542    -449.078     439.899
  H      320.900    -447.455     442.416
  H      314.627    -451.283     440.955
  H      321.134    -453.126     439.125
  H      319.695    -452.125     440.893
  H      321.077    -450.679     443.957
  H      319.931    -449.277     441.476
  H      318.281    -448.262     442.873
  H      317.909    -450.539     444.528
  H      324.843    -452.861     439.385
  H      316.812    -451.659     442.560
  H      323.540    -453.479     438.401
  H      316.231    -449.992     442.845
  P      318.968    -447.008     444.994
  C      318.392    -445.612     447.116
  O      318.893    -446.831     446.588
  O      317.446    -446.835     444.526
  O      319.882    -446.030     444.299
  H      317.406    -446.298     443.707
  H      318.407    -445.653     448.185
  H      317.387    -445.464     446.779
  H      319.004    -444.800     446.782

 6  7  8  9  10  11  12  13  14  15  16  26  30  31  32  33  35 0
 6-311+G(2d,p)
 ****
 37  38 0
 6-311+G(2d,p)
 ****
 1  2  3  4  5  17  18  19  20  21  22  23  24  25 0
 3-21G
 ****
 27  28  29  34  36  39  40  41  42  43  44  45  46 0
 3-21G
 ****


