%nproc=1
%NoSave
%Mem=1900MB
#P OB98/GEN NMR

erre ene a

0 1
  C      379.464    -664.585     315.479
  O      379.439    -665.653     316.405
  P      379.768    -665.405     317.958
  C      381.288    -663.695     319.150
  O      381.076    -664.486     317.968
  C      382.758    -663.736     319.573
  O      383.612    -663.221     318.529
  C      383.069    -662.887     320.810
  O      382.639    -663.557     321.987
  C      384.582    -662.734     320.688
  O      385.271    -663.889     321.199
  C      384.765    -662.629     319.149
  N      384.982    -661.252     318.709
  C      386.194    -660.676     319.078
  O      387.002    -661.297     319.770
  N      386.440    -659.376     318.702
  C      385.542    -658.725     318.025
  N      385.865    -657.427     317.698
  C      384.244    -659.288     317.645
  C      384.024    -660.545     318.012
  O      379.841    -666.634     318.802
  O      378.608    -664.391     318.418
  H      384.997    -664.641     320.620
  H      377.743    -664.848     318.502
  H      383.526    -658.689     317.090
  H      383.095    -661.041     317.767
  H      385.628    -663.235     318.831
  H      384.948    -661.861     321.233
  H      382.591    -661.904     320.717
  H      383.033    -664.783     319.754
  H      386.749    -657.059     318.006
  H      380.666    -664.105     319.955
  H      385.216    -656.809     317.210
  H      380.958    -662.656     318.959
  P      382.701    -662.786     323.394
  C      384.455    -661.247     324.449
  O      384.225    -662.429     323.690
  O      381.958    -663.460     324.522
  O      382.033    -661.352     323.066
  H      381.426    -661.132     323.784
  H      385.475    -661.287     324.856
  H      383.742    -661.169     325.281
  H      384.358    -660.371     323.813
  H      379.219    -664.952     314.504
  H      380.442    -664.151     315.461
  H      378.750    -663.843     315.771

 3  4  5  6  7  8  9  10  11  12  13  23  27  28  29  30  32 0
 6-311+G(2d,p)
 ****
 34  35 0
 6-311+G(2d,p)
 ****
 1  2  14  15  16  17  18  19  20  21  22  24  25  26 0
 3-21G
 ****
 31  33  36  37  38  39  40  41  42  43  44  45  46 0
 3-21G
 ****


