%nproc=1
%NoSave
%Mem=1900MB
#P OB98/GEN NMR

erre ene a

0 1
  C      -19.092    -747.371    -208.559
  O      -18.516    -747.170    -209.832
  H      -19.720    -746.511    -208.315
  H      -18.302    -747.451    -207.805
  H      -19.709    -748.273    -208.554
  P      -17.621    -748.363    -210.423
  C      -19.608    -749.793    -211.286
  O      -18.533    -749.688    -210.362
  C      -19.348    -750.911    -212.294
  O      -19.332    -752.188    -211.587
  C      -20.403    -751.018    -213.406
  O      -19.735    -751.428    -214.609
  C      -21.279    -752.169    -212.946
  O      -22.012    -752.770    -214.012
  C      -20.223    -753.073    -212.308
  N      -22.660    -757.474    -212.252
  C      -22.151    -756.751    -213.303
  N      -22.312    -757.274    -214.540
  N      -21.535    -755.603    -213.162
  C      -21.415    -755.209    -211.866
  C      -21.880    -755.838    -210.734
  C      -22.586    -757.094    -210.912
  O      -23.076    -757.775    -210.010
  N      -21.586    -755.102    -209.604
  C      -20.935    -754.045    -210.060
  N      -20.810    -754.067    -211.426
  O      -16.539    -748.592    -209.262
  O      -16.979    -748.091    -211.743
  H      -22.695    -753.346    -213.613
  H      -15.731    -748.076    -209.447
  H      -23.141    -758.341    -212.413
  H      -20.544    -753.242    -209.453
  H      -19.634    -753.611    -213.056
  H      -22.001    -751.812    -212.184
  H      -22.738    -758.170    -214.724
  H      -20.958    -750.095    -213.595
  H      -21.903    -756.774    -215.328
  H      -18.344    -750.771    -212.717
  H      -19.712    -748.843    -211.824
  H      -20.533    -749.996    -210.737
  P      -18.892    -750.322    -215.421
  C      -16.576    -751.512    -215.468
  O      -17.362    -750.436    -214.965
  O      -19.359    -748.945    -214.737
  O      -19.141    -750.316    -216.891
  H      -19.288    -748.218    -215.378
  H      -15.585    -751.446    -215.071
  H      -16.537    -751.456    -216.536
  H      -17.016    -752.442    -215.175

 6  7  8  9  10  11  12  13  14  15  26  29  33  34 0
 6-311+G(2d,p)
 ****
 36  38  39  40  41 0
 6-311+G(2d,p)
 ****
 1  2  3  4  5  16  17  18  19  20  21  22  23  24  25 0
 3-21G
 ****
 27  28  30  31  32  35  37  42  43  44  45  46  47 0
 3-21G
 ****
 48  49 0
 3-21G
 ****


