%nproc=1
%NoSave
%Mem=1900MB
#P OB98/GEN NMR

erre ene a

0 1
  C       -6.959    -100.161     171.612
  O       -5.920    -100.201     170.628
  P       -4.591     -99.357     170.962
  C       -4.998     -97.682     169.018
  O       -4.113     -98.626     169.613
  C       -4.403     -97.065     167.749
  O       -3.317     -96.178     168.112
  C       -3.841     -98.081     166.744
  O       -4.114     -97.609     165.417
  C       -2.340     -97.989     166.959
  O       -1.606     -98.434     165.822
  C       -2.197     -96.501     167.270
  N        2.459     -94.618     166.669
  C        1.408     -94.678     165.772
  N        1.641     -94.188     164.535
  N        0.235     -95.175     166.065
  C        0.136     -95.598     167.349
  C        1.099     -95.582     168.332
  C        2.406     -95.069     167.980
  O        3.392     -95.036     168.713
  N        0.622     -96.103     169.511
  C       -0.623     -96.436     169.238
  N       -0.961     -96.159     167.938
  O       -3.489    -100.494     171.199
  O       -4.725     -98.473     172.155
  H       -1.895     -99.347     165.635
  H       -3.086    -100.389     172.081
  H        3.349     -94.245     166.384
  H       -1.311     -96.904     169.930
  H       -2.272     -95.893     166.360
  H       -2.058     -98.612     167.817
  H        2.500     -93.733     164.264
  H       -4.224     -99.097     166.866
  H        0.870     -94.183     163.879
  H       -5.178     -96.451     167.273
  H       -5.211     -96.886     169.738
  H       -5.942     -98.186     168.789
  P       -5.504     -98.077     164.767
  C       -4.305     -99.571     163.006
  O       -5.168     -98.477     163.252
  O       -6.325     -96.710     164.626
  O       -6.239     -99.102     165.567
  H       -7.285     -96.887     164.651
  H       -4.114    -100.158     163.907
  H       -3.355     -99.192     162.619
  H       -4.762    -100.218     162.254
  H       -7.786    -100.755     171.282
  H       -7.279     -99.150     171.752
  H       -6.588    -100.549     172.538

 3  4  5  6  7  8  9  10  11  12  23  26  30  31  33  0
 6-311+G(2d,p)
 ****
 35  36  37  38 0
 6-311+G(2d,p)
 ****
 1  2  13  14  15  16  17  18  19  20  21  22  24  25  27  28  29 0
 3-21G
 ****
 32  34  39  40  41  42  43  44  45  46  47  48  49 0
 3-21G
 ****


