%nproc=1
%NoSave
%Mem=1900MB
#P OB98/GEN NMR

erre ene a

0 1
  C     -150.948    1043.823    -779.111
  O     -150.099    1042.699    -779.336
  P     -150.738    1041.224    -779.192
  C     -150.472    1040.671    -781.728
  O     -151.344    1040.797    -780.611
  C     -151.244    1040.186    -782.959
  O     -152.382    1041.026    -783.252
  C     -150.409    1040.190    -784.248
  O     -149.600    1039.016    -784.332
  C     -151.503    1040.147    -785.311
  O     -152.001    1038.819    -785.446
  C     -152.587    1041.049    -784.684
  N     -154.438    1044.431    -788.064
  C     -154.666    1043.101    -787.898
  N     -154.121    1042.273    -786.986
  C     -153.273    1042.938    -786.187
  C     -152.939    1044.282    -786.236
  C     -153.562    1045.047    -787.234
  N     -153.319    1046.394    -787.413
  N     -152.016    1044.598    -785.258
  C     -151.806    1043.468    -784.611
  N     -152.542    1042.434    -785.149
  O     -152.025    1041.487    -778.288
  O     -149.811    1040.235    -778.558
  H     -151.243    1038.228    -785.589
  H     -152.189    1040.720    -777.717
  H     -155.399    1042.661    -788.583
  H     -151.143    1043.361    -783.751
  H     -153.597    1040.677    -784.876
  H     -151.143    1040.469    -786.285
  H     -149.822    1041.110    -784.335
  H     -151.609    1039.163    -782.763
  H     -149.662    1039.977    -781.480
  H     -153.831    1046.873    -788.119
  H     -152.692    1046.866    -786.771
  H     -150.001    1041.643    -781.917
  P     -148.043    1039.190    -784.013
  C     -148.232    1037.564    -781.974
  O     -147.883    1038.858    -782.451
  O     -147.804    1040.772    -784.110
  O     -147.129    1038.429    -784.928
  H     -146.896    1040.964    -784.391
  H     -147.785    1037.413    -780.979
  H     -147.855    1036.790    -782.649
  H     -149.328    1037.482    -781.890
  H     -150.388    1044.725    -779.242
  H     -151.334    1043.784    -778.114
  H     -151.759    1043.803    -779.809

 3  4  5  6  7  8  9  10  11  12  22  25  29  30  31  32 0
 6-311+G(2d,p)
 ****
 33  36  37 0
 6-311+G(2d,p)
 ****
 1  2  13  14  15  16  17  18  19  20  21  23  24  26 0
 3-21G
 ****
 27  28  34  35  38  39  40  41  42  43  44  45  46  47  48 0
 3-21G
 ****


