%nproc=1
%NoSave
%Mem=1900MB
#P OB98/GEN NMR

erre ene a

0 1
  C      254.151    -121.182     388.940
  O      252.756    -120.939     388.848
  P      252.275    -119.651     388.018
  C      251.727    -118.362     390.205
  O      252.451    -118.380     388.984
  C      251.592    -116.933     390.739
  O      250.777    -116.960     391.946
  C      252.924    -116.257     391.098
  O      252.779    -114.867     390.790
  C      253.001    -116.481     392.599
  O      253.929    -115.643     393.265
  C      251.534    -116.288     392.977
  N      250.544    -115.127     397.858
  C      250.756    -114.345     396.771
  N      251.009    -114.729     395.502
  C      251.016    -116.069     395.402
  C      250.832    -116.987     396.419
  C      250.588    -116.467     397.701
  N      250.378    -117.266     398.810
  N      250.938    -118.279     395.943
  C      251.183    -118.141     394.657
  N      251.217    -116.823     394.281
  O      250.690    -119.840     387.944
  O      252.891    -119.513     386.659
  H      253.832    -115.745     394.231
  H      250.342    -119.565     387.074
  H      250.726    -113.274     396.944
  H      251.353    -118.954     393.964
  H      251.250    -115.228     392.970
  H      253.313    -117.517     392.786
  H      253.778    -116.660     390.543
  H      251.053    -116.335     389.994
  H      252.259    -118.958     390.949
  H      250.410    -116.801     399.706
  H      250.615    -118.244     398.723
  H      250.743    -118.819     390.051
  P      254.083    -114.020     390.385
  C      254.720    -113.428     392.804
  O      255.054    -114.180     391.660
  O      253.545    -112.524     390.578
  O      254.657    -114.310     389.044
  H      253.121    -112.405     391.447
  H      255.397    -113.702     393.615
  H      253.689    -113.638     393.115
  H      254.837    -112.358     392.595
  H      254.322    -122.066     389.518
  H      254.628    -120.349     389.413
  H      254.556    -121.314     387.958

 3  4  5  6  7  8  9  10  11  12  22  25  29  30  31  32 0
 6-311+G(2d,p)
 ****
 33  36  37 0
 6-311+G(2d,p)
 ****
 1  2  13  14  15  16  17  18  19  20  21  23  24  26 0
 3-21G
 ****
 27  28  34  35  38  39  40  41  42  43  44  45  46  47  48 0
 3-21G
 ****


