%nproc=1
%NoSave
%Mem=1900MB
#P OB98/GEN NMR

erre ene a

0 1
  C     -319.751       4.874    -178.989
  O     -319.114       3.857    -179.750
  P     -317.573       4.050    -180.153
  C     -317.702       3.808    -182.793
  O     -317.475       4.606    -181.649
  C     -316.978       4.430    -183.999
  O     -317.690       5.600    -184.455
  C     -315.548       4.862    -183.685
  O     -314.624       3.800    -183.846
  C     -315.342       5.998    -184.673
  O     -315.079       5.477    -185.985
  C     -316.732       6.684    -184.630
  N     -316.973       7.704    -183.581
  C     -317.085       9.046    -183.925
  O     -316.991       9.476    -185.082
  N     -317.323       9.919    -182.898
  C     -317.629       9.583    -181.612
  O     -317.890      10.408    -180.739
  C     -317.645       8.150    -181.323
  C     -317.308       7.287    -182.299
  O     -317.017       2.558    -180.264
  O     -316.788       4.873    -179.186
  H     -314.259       4.955    -185.934
  H     -316.335       2.395    -179.583
  H     -317.339      10.902    -183.119
  H     -317.925       7.832    -180.323
  H     -317.315       6.225    -182.098
  H     -316.950       7.168    -185.590
  H     -314.478       6.595    -184.404
  H     -315.494       5.284    -182.670
  H     -316.976       3.692    -184.816
  H     -318.772       3.727    -183.000
  H     -317.338       2.790    -182.616
  P     -313.890       3.180    -182.557
  C     -312.161       5.078    -182.517
  O     -313.202       4.425    -181.817
  O     -313.004       2.007    -182.811
  O     -315.102       2.819    -181.575
  H     -315.354       1.866    -181.667
  H     -311.891       5.992    -181.973
  H     -312.487       5.343    -183.529
  H     -311.286       4.425    -182.576
  H     -320.768       4.597    -178.804
  H     -319.725       5.795    -179.533
  H     -319.239       4.996    -178.057

 3  4  5  6  7  8  9  10  11  12  13  23  28  29  30  31  32 0
 6-311+G(2d,p)
 ****
 33  34 0
 6-311+G(2d,p)
 ****
 1  2  14  15  16  17  18  19  20  21  22  24  25  26  27 0
 3-21G
 ****
 35  36  37  38  39  40  41  42  43  44  45 0
 3-21G
 ****


