%nproc=1
%NoSave
%Mem=1900MB
#P OB98/GEN NMR

erre ene a

0 1
  C      269.093     476.482     164.411
  O      269.302     475.329     163.614
  H      269.430     477.362     163.851
  H      269.677     476.408     165.332
  H      268.033     476.597     164.652
  P      268.672     473.951     164.134
  C      267.926     471.781     162.915
  O      268.786     472.908     162.917
  C      267.754     471.257     161.487
  O      266.837     472.142     160.776
  C      269.057     471.199     160.673
  O      269.016     470.049     159.820
  C      268.991     472.453     159.825
  O      269.779     472.400     158.649
  C      267.487     472.532     159.549
  N      267.059     473.871     159.133
  C      267.518     474.336     157.898
  O      268.174     473.667     157.099
  N      267.182     475.633     157.591
  C      266.479     476.488     158.386
  O      266.233     477.647     158.066
  C      266.035     475.951     159.683
  C      266.342     474.687     159.990
  O      267.105     474.275     164.203
  O      269.206     473.448     165.433
  H      266.866     474.628     165.077
  H      270.719     472.420     158.925
  H      267.500     475.979     156.704
  H      265.488     476.604     160.342
  H      266.050     474.262     160.950
  H      267.204     471.803     158.782
  H      269.324     473.326     160.413
  H      269.965     471.164     161.288
  H      267.277     470.270     161.522
  H      266.947     472.067     163.312
  H      268.355     470.994     163.553
  P      270.119     468.909     160.056
  C      270.118     466.357     159.428
  O      269.669     467.674     159.133
  O      269.757     468.435     161.551
  O      271.511     469.395     159.864
  H      268.804     468.463     161.735
  H      269.717     465.674     158.708
  H      269.788     466.078     160.407
  H      271.187     466.328     159.391

 6  7  8  9  10  11  12  13  14  15  16  27  31  32  33  34  35 0
 6-311+G(2d,p)
 ****
 36  37 0
 6-311+G(2d,p)
 ****
 1  2  3  4  5  17  18  19  20  21  22  23  24  25 0
 3-21G
 ****
 26  28  29  30  38  39  40  41  42  43  44  45 0
 3-21G
 ****


