%nproc=1
%NoSave
%Mem=1900MB
#P OB98/GEN NMR

erre ene a

0 1
  C     -389.163    -896.810     -87.084
  O     -390.080    -897.360     -88.026
  P     -389.625    -898.410     -89.157
  C     -389.994    -896.720     -91.079
  O     -389.068    -897.590     -90.428
  C     -389.314    -895.870     -92.161
  O     -388.752    -896.700     -93.190
  C     -390.241    -894.860     -92.846
  O     -390.448    -893.730     -92.028
  C     -389.456    -894.610     -94.128
  O     -388.411    -893.640     -93.901
  C     -388.858    -895.990     -94.431
  N     -388.608    -898.920     -98.619
  C     -387.654    -898.350     -97.873
  N     -387.794    -897.570     -96.762
  C     -389.094    -897.440     -96.446
  C     -390.194    -897.960     -97.134
  C     -389.903    -898.740     -98.271
  N     -390.874    -899.310     -99.050
  N     -391.364    -897.600     -96.524
  C     -391.004    -896.870     -95.477
  N     -389.620    -896.750     -95.399
  O     -390.652    -899.440     -89.490
  O     -388.305    -899.100     -88.551
  H     -388.827    -892.760     -93.945
  H     -388.215    -900.000     -88.917
  H     -386.614    -898.520     -98.186
  H     -391.683    -896.430     -94.769
  H     -387.834    -895.910     -94.838
  H     -390.105    -894.210     -94.925
  H     -391.184    -895.350     -93.091
  H     -388.475    -895.350     -91.663
  H     -390.451    -896.070     -90.315
  H     -390.593    -899.820     -99.867
  H     -391.857    -899.140     -98.826
  H     -390.787    -897.330     -91.530
  P     -391.861    -893.530     -91.288
  C     -392.229    -891.450     -92.734
  O     -392.786    -892.660     -92.256
  O     -391.780    -893.050     -89.881
  O     -392.526    -894.980     -91.363
  H     -393.119    -895.120     -90.601
  H     -392.319    -890.680     -91.959
  H     -392.789    -891.130     -93.637
  H     -391.175    -891.590     -93.015
  H     -389.682    -896.140     -86.431
  H     -388.394    -896.278     -87.604
  H     -388.725    -897.600     -86.510

 3  4  5  6  7  8  9  10  11  12  22  25  29  30  31  32 0
 6-311+G(2d,p)
 ****
 33  36  37 0
 6-311+G(2d,p)
 ****
 1  2  13  14  15  16  17  18  19  20  21  23  24  26 0
 3-21G
 ****
 27  28  34  35  38  39  40  41  42  43  44  45  46  47  48 0
 3-21G
 ****


