%nproc=1
%NoSave
%Mem=1900MB
#P OB98/GEN NMR

erre ene a

0 1
  C       32.966    -107.242      54.179
  O       32.337    -108.099      53.240
  P       31.325    -109.210      53.805
  C       33.232    -110.950      53.965
  O       32.212    -110.243      54.657
  C       33.964    -111.903      54.903
  O       34.624    -111.126      55.941
  C       33.054    -112.925      55.602
  O       33.689    -114.212      55.585
  C       33.022    -112.447      57.043
  O       32.743    -113.506      57.952
  C       34.425    -111.854      57.169
  N       34.932    -111.735      62.192
  C       35.010    -112.804      61.323
  N       35.192    -114.022      61.881
  N       34.914    -112.694      60.024
  C       34.765    -111.414      59.605
  C       34.682    -110.271      60.367
  C       34.729    -110.417      61.806
  O       34.576    -109.520      62.633
  N       34.549    -109.156      59.581
  C       34.546    -109.620      58.346
  N       34.624    -110.990      58.310
  O       30.935    -110.036      52.490
  O       30.113    -108.679      54.489
  H       32.494    -113.096      58.802
  H       29.965    -110.041      52.380
  H       34.995    -111.879      63.186
  H       34.456    -109.011      57.456
  H       35.177    -112.652      57.219
  H       32.247    -111.680      57.149
  H       35.310    -114.174      62.870
  H       32.052    -113.004      55.169
  H       35.276    -114.816      61.258
  H       34.755    -112.411      54.336
  H       33.948    -110.233      53.550
  H       32.778    -111.511      53.141
  P       32.730    -115.467      55.292
  C       32.442    -116.286      57.748
  O       31.857    -115.666      56.620
  O       33.735    -116.712      55.304
  O       31.967    -115.360      54.014
  H       33.373    -117.448      54.777
  H       33.523    -116.423      57.631
  H       31.977    -117.263      57.899
  H       32.259    -115.665      58.628
  H       33.608    -106.558      53.664
  H       33.544    -107.826      54.864
  H       32.221    -106.695      54.718

 3  4  5  6  7  8  9  10  11  12  23  26  30  31  33  0
 6-311+G(2d,p)
 ****
 35  36  37  38 0
 6-311+G(2d,p)
 ****
 1  2  13  14  15  16  17  18  19  20  21  22  24  25  27  28  29 0
 3-21G
 ****
 32  34  39  40  41  42  43  44  45  46  47  48  49 0
 3-21G
 ****


