%nproc=1
%NoSave
%Mem=1900MB
#P OB98/GEN NMR

erre ene a

0 1
  C     -488.997      99.311     -54.205
  O     -489.727      98.378     -53.422
  P     -490.493      98.937     -52.132
  C     -489.142      97.328     -50.585
  O     -489.540      98.668     -50.870
  C     -488.237      97.298     -49.361
  O     -486.988      97.956     -49.653
  C     -488.799      98.018     -48.141
  O     -489.804      97.241     -47.510
  C     -487.528      98.192     -47.312
  O     -487.186      96.969     -46.642
  C     -486.484      98.512     -48.406
  N     -484.197     102.655     -46.441
  C     -484.267     101.373     -46.013
  N     -484.912     100.329     -46.571
  C     -485.532     100.715     -47.706
  C     -485.573     101.990     -48.258
  C     -484.857     102.984     -47.576
  N     -484.793     104.292     -48.014
  N     -486.327     102.009     -49.407
  C     -486.725     100.760     -49.566
  N     -486.264      99.932     -48.570
  O     -491.687      97.893     -51.930
  O     -491.004     100.344     -52.262
  H     -486.422      97.161     -46.065
  H     -492.487      98.332     -51.574
  H     -483.725     101.150     -45.092
  H     -487.350     100.398     -50.373
  H     -485.513      98.044     -48.199
  H     -487.617      98.974     -46.544
  H     -489.209      98.990     -48.422
  H     -488.025      96.247     -49.119
  H     -488.593      96.924     -51.444
  H     -484.392     104.975     -47.391
  H     -485.401     104.565     -48.780
  H     -490.036      96.715     -50.441
  P     -490.729      97.975     -46.419
  C     -489.711      96.413     -44.637
  O     -489.930      97.753     -45.041
  O     -491.951      96.951     -46.286
  O     -491.094      99.377     -46.754
  H     -491.640      96.038     -46.167
  H     -489.120      96.406     -43.727
  H     -489.167      95.873     -45.414
  H     -490.676      95.924     -44.444
  H     -488.539      98.804     -55.029
  H     -488.240      99.768     -53.602
  H     -489.662     100.064     -54.574

 3  4  5  6  7  8  9  10  11  12  22  25  29  30  31  32 0
 6-311+G(2d,p)
 ****
 33  36  37 0
 6-311+G(2d,p)
 ****
 1  2  13  14  15  16  17  18  19  20  21  23  24  26 0
 3-21G
 ****
 27  28  34  35  38  39  40  41  42  43  44  45  46  47  48 0
 3-21G
 ****


