%nproc=1
%NoSave
%Mem=1900MB
#P OB98/GEN NMR

erre ene a

0 1
  C     -381.790    -581.114    -893.052
  O     -381.505    -580.986    -894.432
  H     -382.120    -580.148    -892.662
  H     -380.880    -581.418    -892.522
  H     -382.586    -581.846    -892.882
  P     -381.170    -582.311    -895.282
  C     -379.212    -583.972    -895.432
  O     -379.728    -582.808    -894.812
  C     -377.776    -583.709    -895.912
  O     -376.960    -583.298    -894.782
  C     -377.066    -584.951    -896.482
  O     -377.521    -585.246    -897.782
  C     -375.619    -584.519    -896.392
  O     -375.263    -583.684    -897.502
  C     -375.602    -583.734    -895.072
  N     -375.045    -584.482    -893.952
  C     -373.683    -584.353    -893.732
  O     -372.947    -583.609    -894.402
  N     -373.175    -585.123    -892.722
  C     -373.834    -586.109    -892.052
  O     -373.284    -586.945    -891.352
  C     -375.280    -586.168    -892.302
  C     -375.823    -585.376    -893.222
  O     -381.344    -582.195    -896.762
  O     -382.154    -583.414    -894.652
  H     -382.910    -583.549    -895.262
  H     -374.589    -583.065    -897.162
  H     -372.158    -585.055    -892.582
  H     -375.865    -586.887    -891.722
  H     -376.873    -585.449    -893.432
  H     -375.008    -582.793    -895.192
  H     -374.950    -585.376    -896.382
  H     -377.251    -585.811    -895.812
  H     -377.779    -582.901    -896.642
  H     -379.836    -584.208    -896.322
  H     -379.244    -584.812    -894.742
  P     -377.162    -586.659    -898.472
  C     -375.068    -588.057    -898.972
  O     -375.576    -586.827    -898.432
  O     -377.776    -586.893    -899.812
  O     -377.676    -587.735    -897.382
  H     -378.210    -588.427    -897.872
  H     -374.001    -588.066    -898.896
  H     -375.353    -588.140    -900.000
  H     -375.472    -588.881    -898.422

 6  7  8  9  10  11  12  13  14  15  16  27  31  32  33  34  35 0
 6-311+G(2d,p)
 ****
 36  37 0
 6-311+G(2d,p)
 ****
 1  2  3  4  5  17  18  19  20  21  22  23  24  25 0
 3-21G
 ****
 26  28  29  30  38  39  40  41  42  43  44  45 0
 3-21G
 ****


