%nproc=1
%NoSave
%Mem=1900MB
#P OB98/GEN NMR

erre ene a

0 1
  C      404.754    -242.319    -491.617
  O      405.522    -241.997    -492.758
  H      404.643    -241.421    -491.007
  H      405.271    -243.083    -491.031
  H      403.762    -242.681    -491.897
  P      405.540    -243.015    -493.991
  C      406.166    -245.190    -492.740
  O      405.147    -244.461    -493.416
  C      405.793    -246.671    -492.611
  O      405.711    -247.268    -493.927
  C      406.879    -247.427    -491.848
  O      406.361    -248.556    -491.147
  C      407.802    -247.913    -492.954
  O      408.598    -249.029    -492.569
  C      406.789    -248.217    -494.057
  N      408.325    -250.793    -498.181
  C      407.926    -251.272    -496.951
  N      407.961    -252.612    -496.787
  N      407.542    -250.502    -495.961
  C      407.629    -249.180    -496.236
  C      408.035    -248.586    -497.411
  C      408.421    -249.443    -498.512
  O      408.799    -249.073    -499.615
  N      408.006    -247.212    -497.315
  C      407.594    -246.984    -496.083
  N      407.338    -248.143    -495.397
  O      407.098    -243.185    -494.325
  O      404.767    -242.586    -495.201
  H      409.077    -248.783    -491.756
  H      407.223    -243.450    -495.248
  H      408.598    -251.424    -498.909
  H      407.459    -246.002    -495.648
  H      406.365    -249.224    -493.930
  H      408.482    -247.097    -493.213
  H      408.413    -253.225    -497.448
  H      407.407    -246.784    -491.140
  H      407.961    -252.960    -495.823
  H      404.802    -246.775    -492.155
  H      406.276    -244.741    -491.744
  H      407.120    -245.074    -493.259
  P      405.555    -248.275    -489.787
  C      407.168    -249.399    -488.044
  O      406.624    -248.213    -488.592
  O      404.763    -249.643    -489.533
  O      404.638    -247.099    -489.860
  H      403.821    -249.530    -489.744
  H      407.856    -249.148    -487.264
  H      407.680    -249.944    -488.810
  H      406.379    -250.001    -487.644

 6  7  8  9  10  11  12  13  14  15  26  29  33  34 0
 6-311+G(2d,p)
 ****
 36  38  39  40  41 0
 6-311+G(2d,p)
 ****
 1  2  3  4  5  16  17  18  19  20  21  22  23  24  25 0
 3-21G
 ****
 27  28  30  31  32  35  37  42  43  44  45  46  47 0
 3-21G
 ****
 48  49 0
 3-21G
 ****


