%nproc=1
%NoSave
%Mem=1900MB
#P OB98/GEN NMR

erre ene a

0 1
  C      -10.698     -21.603     -93.632
  O      -10.100     -22.061     -94.824
  H      -10.878     -22.461     -92.980
  H      -11.656     -21.130     -93.861
  H      -10.054     -20.893     -93.107
  P       -9.322     -21.011     -95.747
  C       -7.841     -21.109     -97.857
  O       -8.393     -21.834     -96.766
  C       -7.323     -22.041     -98.952
  O       -6.226     -22.829     -98.440
  C       -8.389     -23.029     -99.434
  O       -9.221     -22.537    -100.471
  C       -7.537     -24.198     -99.923
  O       -7.160     -24.029    -101.299
  C       -6.302     -24.140     -99.018
  N       -5.990     -29.098     -97.809
  C       -6.105     -28.516     -99.058
  N       -6.182     -29.368    -100.102
  N       -6.155     -27.223     -99.247
  C       -6.167     -26.506     -98.101
  C       -6.079     -26.972     -96.808
  C       -5.948     -28.400     -96.612
  O       -5.828     -28.963     -95.529
  N       -6.164     -25.948     -95.896
  C       -6.391     -24.880     -96.635
  N       -6.321     -25.156     -97.981
  O       -8.247     -20.362     -94.748
  O      -10.173     -19.947     -96.370
  H       -6.426     -23.386    -101.335
  H       -8.076     -19.439     -95.008
  H       -5.926     -30.096     -97.728
  H       -6.565     -23.881     -96.252
  H       -5.379     -24.290     -99.591
  H       -8.093     -25.137     -99.862
  H       -6.234     -30.368    -100.007
  H       -8.999     -23.380     -98.597
  H       -6.456     -28.991    -101.012
  H       -6.927     -21.442     -99.781
  H       -7.020     -20.516     -97.453
  H       -8.579     -20.413     -98.265
  P      -10.681     -23.140    -100.707
  C      -12.657     -22.626    -102.358
  O      -11.439     -22.224    -101.770
  O      -11.434     -22.810     -99.334
  O      -10.730     -24.595    -101.038
  H      -11.442     -23.592     -98.750
  H      -12.992     -21.870    -103.037
  H      -13.392     -22.769    -101.594
  H      -12.511     -23.543    -102.889

 6  7  8  9  10  11  12  13  14  15  26  29  33  34 0
 6-311+G(2d,p)
 ****
 36  38  39  40  41 0
 6-311+G(2d,p)
 ****
 1  2  3  4  5  16  17  18  19  20  21  22  23  24  25 0
 3-21G
 ****
 27  28  30  31  32  35  37  42  43  44  45  46  47 0
 3-21G
 ****
 48  49 0
 3-21G
 ****


