%nproc=1
%NoSave
%Mem=1900MB
#P OB98/GEN NMR

erre ene a

0 1
  C       81.647     -60.430     -48.161
  O       81.129     -59.326     -47.448
  P       80.193     -59.521     -46.161
  C       78.144     -59.178     -47.675
  O       78.775     -60.022     -46.724
  C       76.621     -59.240     -47.550
  O       76.178     -60.618     -47.686
  C       76.066     -58.703     -46.225
  O       74.804     -58.102     -46.531
  C       75.870     -59.970     -45.416
  O       74.972     -59.794     -44.327
  C       75.405     -60.941     -46.509
  N       75.566     -62.333     -46.108
  C       74.581     -62.865     -45.272
  O       73.676     -62.146     -44.845
  N       74.672     -64.181     -44.894
  C       75.714     -64.873     -45.236
  N       75.748     -66.173     -44.837
  C       76.837     -64.314     -46.011
  C       76.693     -63.056     -46.423
  O       80.126     -58.350     -45.241
  O       80.775     -60.842     -45.470
  H       75.146     -60.499     -43.667
  H       81.608     -60.636     -44.978
  H       77.709     -64.913     -46.224
  H       77.462     -62.561     -46.998
  H       74.348     -60.770     -46.753
  H       76.832     -60.296     -45.003
  H       76.727     -57.986     -45.731
  H       76.192     -58.678     -48.390
  H       74.949     -66.519     -44.320
  H       78.429     -59.522     -48.673
  H       76.469     -66.819     -45.118
  H       78.503     -58.150     -47.560
  P       74.274     -56.821     -45.727
  C       72.344     -58.198     -44.763
  O       73.452     -57.367     -44.467
  O       73.555     -55.808     -46.556
  O       75.592     -56.198     -45.060
  H       75.407     -55.287     -44.767
  H       72.043     -58.726     -43.854
  H       72.599     -58.932     -45.532
  H       71.509     -57.584     -45.110
  H       82.242     -60.079     -48.979
  H       80.839     -61.023     -48.536
  H       82.252     -61.024     -47.508

 3  4  5  6  7  8  9  10  11  12  13  23  27  28  29  30  32 0
 6-311+G(2d,p)
 ****
 34  35 0
 6-311+G(2d,p)
 ****
 1  2  14  15  16  17  18  19  20  21  22  24  25  26 0
 3-21G
 ****
 31  33  36  37  38  39  40  41  42  43  44  45  46 0
 3-21G
 ****


