%nproc=1
%NoSave
%Mem=1900MB
#P OB98/GEN NMR

erre ene a

0 1
  C      133.277     -71.524      49.878
  O      133.842     -72.744      50.312
  H      133.732     -71.249      48.924
  H      133.474     -70.728      50.602
  H      132.199     -71.636      49.730
  P      133.421     -73.308      51.755
  C      135.826     -72.656      52.466
  O      134.822     -73.659      52.464
  C      137.073     -73.161      53.190
  O      138.116     -72.162      53.181
  C      136.869     -73.495      54.664
  O      136.160     -74.707      54.875
  C      138.318     -73.583      55.119
  O      138.887     -74.827      54.673
  C      138.943     -72.386      54.359
  N      139.016     -71.171      55.170
  C      139.825     -71.226      56.310
  O      140.435     -72.257      56.594
  N      139.898     -70.123      57.127
  C      139.207     -69.063      56.840
  N      139.277     -68.016      57.706
  C      138.355     -68.955      55.639
  C      138.299     -70.035      54.861
  O      132.405     -74.406      51.767
  O      132.965     -72.009      52.573
  H      138.442     -75.538      55.165
  H      132.682     -72.308      53.471
  H      137.791     -68.052      55.451
  H      137.682     -70.038      53.968
  H      139.949     -72.634      54.003
  H      138.434     -73.541      56.203
  H      136.388     -72.664      55.190
  H      137.453     -74.025      52.627
  H      139.836     -68.141      58.538
  H      135.419     -71.767      52.960
  H      138.573     -67.284      57.707
  H      136.104     -72.398      51.441
  P      135.017     -74.720      56.003
  C      136.769     -75.730      57.650
  O      135.465     -75.807      57.098
  O      133.789     -75.418      55.258
  O      134.661     -73.387      56.582
  H      133.190     -74.751      54.866
  H      136.904     -76.521      58.357
  H      136.893     -74.788      58.141
  H      137.493     -75.823      56.868

 6  7  8  9  10  11  12  13  14  15  16  26  30  31  32  33  35 0
 6-311+G(2d,p)
 ****
 37  38 0
 6-311+G(2d,p)
 ****
 1  2  3  4  5  17  18  19  20  21  22  23  24  25 0
 3-21G
 ****
 27  28  29  34  36  39  40  41  42  43  44  45  46 0
 3-21G
 ****


