%nproc=1
%NoSave
%Mem=1900MB
#P OB98/GEN NMR

erre ene a

0 1
  C       -0.550     182.206     -61.473
  O       -1.760     181.974     -62.166
  H       -0.674     183.091     -60.842
  H        0.268     182.391     -62.176
  H       -0.306     181.353     -60.834
  P       -1.814     180.773     -63.224
  C       -4.186     179.766     -62.971
  O       -3.342     180.656     -63.697
  C       -5.637     179.913     -63.425
  O       -6.153     181.204     -63.041
  C       -5.831     179.821     -64.934
  O       -5.727     178.479     -65.368
  C       -7.207     180.449     -65.078
  O       -8.240     179.519     -64.719
  C       -7.123     181.599     -64.041
  N       -6.766     182.886     -64.628
  C       -7.608     183.356     -65.644
  O       -8.574     182.685     -66.006
  N       -7.316     184.563     -66.232
  C       -6.306     185.260     -65.817
  N       -6.074     186.449     -66.437
  C       -5.414     184.818     -64.726
  C       -5.691     183.632     -64.191
  O       -1.202     179.477     -62.787
  O       -1.081     181.365     -64.518
  H       -8.276     178.860     -65.442
  H       -0.135     181.124     -64.516
  H       -4.588     185.440     -64.404
  H       -5.087     183.233     -63.383
  H       -8.082     181.718     -63.523
  H       -7.410     180.775     -66.099
  H       -5.104     180.458     -65.451
  H       -6.232     179.152     -62.905
  H       -6.726     186.719     -67.166
  H       -4.095     180.027     -61.912
  H       -5.426     187.142     -66.094
  H       -3.854     178.729     -63.100
  P       -5.494     178.113     -66.912
  C       -4.138     175.995     -66.368
  O       -5.319     176.516     -66.959
  O       -4.414     178.882     -67.594
  O       -6.937     178.318     -67.571
  H       -7.121     179.283     -67.707
  H       -4.134     174.929     -66.460
  H       -4.109     176.264     -65.333
  H       -3.282     176.400     -66.866

 6  7  8  9  10  11  12  13  14  15  16  26  30  31  32  33  35 0
 6-311+G(2d,p)
 ****
 37  38 0
 6-311+G(2d,p)
 ****
 1  2  3  4  5  17  18  19  20  21  22  23  24  25 0
 3-21G
 ****
 27  28  29  34  36  39  40  41  42  43  44  45  46 0
 3-21G
 ****


