%nproc=1
%NoSave
%Mem=1900MB
#P OB98/GEN NMR

erre ene a

0 1
  C     -531.753    -703.500    -181.283
  O     -531.421    -702.762    -180.127
  H     -530.864    -703.584    -181.914
  H     -532.534    -702.984    -181.850
  H     -532.094    -704.508    -181.018
  P     -532.513    -702.604    -178.965
  C     -530.627    -701.928    -177.340
  O     -531.901    -701.589    -177.877
  C     -530.051    -700.725    -176.594
  O     -529.796    -699.642    -177.512
  C     -530.973    -700.162    -175.522
  O     -530.974    -700.987    -174.372
  C     -530.359    -698.783    -175.326
  O     -529.186    -698.851    -174.498
  C     -529.974    -698.405    -176.778
  N     -530.972    -697.543    -177.424
  C     -530.654    -696.198    -177.486
  O     -529.609    -695.719    -177.036
  N     -531.605    -695.384    -178.059
  C     -532.845    -695.779    -178.469
  O     -533.746    -695.001    -178.764
  C     -533.089    -697.235    -178.447
  C     -532.159    -698.031    -177.918
  O     -533.051    -703.880    -178.404
  O     -533.669    -701.734    -179.656
  H     -534.403    -702.321    -179.922
  H     -528.724    -697.994    -174.594
  H     -531.409    -694.392    -178.065
  H     -534.042    -697.597    -178.820
  H     -532.334    -699.102    -177.864
  H     -529.008    -697.886    -176.796
  H     -531.045    -698.081    -174.843
  H     -531.984    -700.046    -175.919
  H     -529.083    -701.033    -176.157
  H     -529.961    -702.201    -178.165
  H     -530.745    -702.784    -176.667
  P     -532.337    -701.573    -173.775
  C     -531.278    -703.829    -173.190
  O     -531.965    -702.697    -172.691
  O     -533.341    -702.002    -174.792
  O     -532.917    -700.377    -172.869
  H     -533.839    -700.185    -173.142
  H     -531.082    -704.509    -172.388
  H     -530.353    -703.520    -173.630
  H     -531.880    -704.314    -173.930

 6  7  8  9  10  11  12  13  14  15  16  27  31  32  33  34  35 0
 6-311+G(2d,p)
 ****
 36  37 0
 6-311+G(2d,p)
 ****
 1  2  3  4  5  17  18  19  20  21  22  23  24  25 0
 3-21G
 ****
 26  28  29  30  38  39  40  41  42  43  44  45 0
 3-21G
 ****


