%nproc=1
%NoSave
%Mem=1900MB
#P OB98/GEN NMR

erre ene a

0 1
  C     -166.830     -27.361    -280.493
  O     -167.968     -27.717    -279.737
  H     -167.094     -27.261    -281.548
  H     -166.452     -26.400    -280.134
  H     -166.047     -28.115    -280.376
  P     -168.704     -29.086    -280.134
  C     -168.172     -29.973    -277.756
  O     -168.132     -30.226    -279.155
  C     -168.189     -31.293    -276.989
  O     -169.542     -31.818    -277.012
  C     -167.248     -32.374    -277.551
  O     -166.321     -32.796    -276.548
  C     -168.167     -33.542    -277.879
  O     -167.608     -34.810    -277.539
  C     -169.422     -33.245    -277.067
  N     -172.452     -37.344    -277.046
  C     -171.613     -36.847    -276.110
  N     -170.915     -35.694    -276.134
  C     -171.170     -35.009    -277.263
  C     -172.015     -35.374    -278.295
  C     -172.664     -36.612    -278.167
  N     -173.475     -37.144    -279.145
  N     -172.011     -34.418    -279.294
  C     -171.143     -33.512    -278.889
  N     -170.594     -33.835    -277.675
  O     -168.054     -29.452    -281.553
  O     -170.190     -29.006    -280.211
  H     -168.242     -35.487    -277.839
  H     -168.759     -29.682    -282.185
  H     -171.480     -37.462    -275.225
  H     -170.841     -32.634    -279.447
  H     -169.344     -33.618    -276.036
  H     -168.380     -33.536    -278.954
  H     -166.706     -32.040    -278.444
  H     -167.942     -31.086    -275.941
  H     -169.080     -29.408    -277.511
  H     -173.803     -38.089    -279.022
  H     -173.549     -36.659    -280.027
  H     -167.301     -29.373    -277.477
  P     -164.909     -32.025    -276.500
  C     -165.091     -32.435    -273.935
  O     -164.662     -31.571    -274.980
  O     -165.229     -30.648    -277.249
  O     -163.790     -32.771    -277.150
  H     -164.415     -30.288    -277.653
  H     -164.857     -31.994    -272.989
  H     -164.591     -33.377    -274.023
  H     -166.148     -32.584    -274.007

 6  7  8  9  10  11  12  13  14  15  25  28  32  33  34  35 0
 6-311+G(2d,p)
 ****
 36  39  40 0
 6-311+G(2d,p)
 ****
 1  2  3  4  5  16  17  18  19  20  21  22  23  24 0
 3-21G
 ****
 26  27  29  30  31  37  38  41  42  43  44  45  46  47  48 0
 3-21G
 ****


