%nproc=1
%NoSave
%Mem=1900MB
#P OB98/GEN NMR

erre ene a

0 1
  C       11.399      79.691    -271.898
  O       12.573      79.529    -272.668
  H       11.656      79.996    -270.881
  H       10.783      80.470    -272.353
  H       10.830      78.758    -271.875
  P       13.638      78.450    -272.143
  C       15.601      78.438    -270.448
  O       14.573      79.199    -271.069
  C       16.594      79.372    -269.760
  O       17.464      79.940    -270.772
  C       15.950      80.530    -268.979
  O       16.357      80.488    -267.607
  C       16.528      81.784    -269.614
  O       16.855      82.797    -268.665
  C       17.766      81.273    -270.341
  N       20.378      85.405    -271.780
  C       20.521      84.583    -270.717
  N       19.863      83.438    -270.447
  C       18.991      83.150    -271.429
  C       18.750      83.878    -272.582
  C       19.479      85.069    -272.733
  N       19.293      85.935    -273.789
  N       17.775      83.269    -273.350
  C       17.402      82.217    -272.651
  N       18.095      82.115    -271.474
  O       14.606      78.247    -273.404
  O       13.056      77.157    -271.680
  H       16.073      82.903    -268.088
  H       14.738      77.294    -273.564
  H       21.259      84.890    -269.981
  H       16.612      81.529    -272.922
  H       18.642      81.226    -269.682
  H       15.794      82.196    -270.318
  H       14.856      80.525    -269.040
  H       17.225      78.770    -269.093
  H       16.132      77.852    -271.205
  H       19.773      86.821    -273.757
  H       18.549      85.746    -274.444
  H       15.149      77.750    -269.727
  P       15.215      80.765    -266.506
  C       13.448      82.641    -266.133
  O       14.669      82.255    -266.750
  O       16.052      80.897    -265.149
  O       14.179      79.696    -266.427
  H       15.493      80.648    -264.387
  H       13.223      83.655    -266.391
  H       13.543      82.556    -265.071
  H       12.659      82.003    -266.473

 6  7  8  9  10  11  12  13  14  15  25  28  32  33  34  35 0
 6-311+G(2d,p)
 ****
 36  39  40 0
 6-311+G(2d,p)
 ****
 1  2  3  4  5  16  17  18  19  20  21  22  23  24 0
 3-21G
 ****
 26  27  29  30  31  37  38  41  42  43  44  45  46  47  48 0
 3-21G
 ****


