%nproc=1
%NoSave
%Mem=1900MB
#P OB98/GEN NMR

erre ene a

0 1
  C     -278.761     -63.786      56.970
  O     -277.724     -62.878      56.663
  H     -278.452     -64.787      56.660
  H     -279.665     -63.515      56.420
  H     -278.969     -63.802      58.042
  P     -277.787     -61.397      57.268
  C     -277.007     -61.700      59.706
  O     -276.642     -61.315      58.390
  C     -275.920     -61.304      60.711
  O     -276.510     -61.247      62.042
  C     -274.740     -62.286      60.774
  O     -273.571     -61.530      61.115
  C     -275.145     -63.180      61.929
  O     -274.046     -63.907      62.430
  C     -275.768     -62.155      62.879
  N     -276.611     -62.778      63.898
  C     -276.824     -62.048      65.059
  O     -276.317     -60.945      65.266
  N     -277.608     -62.642      66.010
  C     -278.135     -63.898      65.934
  O     -278.806     -64.395      66.830
  C     -277.841     -64.643      64.700
  C     -277.107     -64.058      63.751
  O     -279.134     -60.938      57.718
  O     -277.199     -60.469      56.104
  H     -274.268     -64.300      63.301
  H     -277.606     -59.582      56.144
  H     -277.781     -62.121      66.854
  H     -278.237     -65.645      64.613
  H     -276.872     -64.580      62.831
  H     -274.988     -61.579      63.393
  H     -275.897     -63.909      61.608
  H     -274.585     -62.832      59.841
  H     -275.577     -60.290      60.474
  H     -277.141     -62.787      59.715
  H     -277.954     -61.224      59.977
  P     -272.285     -61.470      60.157
  C     -272.877     -59.453      58.669
  O     -272.043     -59.947      59.713
  O     -272.320     -62.439      59.021
  O     -271.045     -61.775      61.124
  H     -270.323     -62.186      60.612
  H     -272.624     -58.434      58.462
  H     -273.901     -59.511      58.973
  H     -272.732     -60.043      57.788

 6  7  8  9  10  11  12  13  14  15  16  26  31  32  33  34  35 0
 6-311+G(2d,p)
 ****
 36  37 0
 6-311+G(2d,p)
 ****
 1  2  3  4  5  17  18  19  20  21  22  23  24  25 0
 3-21G
 ****
 27  28  29  30  38  39  40  41  42  43  44  45 0
 3-21G
 ****


