%nproc=1
%NoSave
%Mem=1900MB
#P OB98/GEN NMR

erre ene a

0 1
  C      -81.629    -791.174    -487.086
  O      -81.658    -790.915    -485.696
  P      -81.686    -789.416    -485.131
  C      -83.996    -789.147    -484.043
  O      -83.199    -788.893    -485.193
  C      -84.925    -787.979    -483.744
  O      -84.146    -786.802    -483.419
  C      -85.863    -787.613    -484.907
  O      -87.137    -787.257    -484.329
  C      -85.199    -786.396    -485.523
  O      -86.103    -785.606    -486.264
  C      -84.618    -785.737    -484.268
  N      -83.550    -784.799    -484.578
  C      -83.890    -783.659    -485.294
  O      -85.041    -783.527    -485.747
  N      -82.942    -782.692    -485.497
  C      -81.698    -782.937    -485.184
  N      -80.806    -781.933    -485.338
  C      -81.254    -784.243    -484.650
  C      -82.225    -785.101    -484.340
  O      -80.685    -788.495    -485.740
  O      -81.432    -789.588    -483.562
  H      -80.679    -789.011    -483.297
  H      -86.559    -786.177    -486.921
  H      -80.204    -784.446    -484.526
  H      -81.989    -786.082    -483.923
  H      -85.403    -785.196    -483.720
  H      -84.399    -786.726    -486.194
  H      -86.010    -788.437    -485.603
  H      -85.513    -788.231    -482.851
  H      -81.152    -781.040    -485.664
  H      -83.316    -789.286    -483.190
  H      -79.918    -781.918    -484.835
  H      -84.568    -790.075    -484.175
  P      -88.459    -787.552    -485.185
  C      -88.988    -789.907    -484.240
  O      -88.605    -789.135    -485.357
  O      -88.012    -787.088    -486.656
  O      -89.685    -786.803    -484.781
  H      -88.803    -786.831    -487.170
  H      -88.963    -790.960    -484.526
  H      -90.002    -789.651    -483.930
  H      -88.288    -789.762    -483.413
  H      -81.614    -792.231    -487.252
  H      -80.752    -790.733    -487.513
  H      -82.499    -790.754    -487.545

 3  4  5  6  7  8  9  10  11  12  13  24  27  28  29  30  32 0
 6-311+G(2d,p)
 ****
 34  35 0
 6-311+G(2d,p)
 ****
 1  2  14  15  16  17  18  19  20  21  22  23  25  26 0
 3-21G
 ****
 31  33  36  37  38  39  40  41  42  43  44  45  46 0
 3-21G
 ****


