%nproc=1
%NoSave
%Mem=1900MB
#P OB98/GEN NMR

erre ene a

0 1
  C      611.853    -342.510    -345.159
  O      610.937    -343.578    -345.036
  H      612.676    -342.666    -344.466
  H      611.353    -341.565    -344.908
  H      612.247    -342.452    -346.176
  P      609.771    -343.741    -346.113
  C      610.581    -345.991    -347.092
  O      610.390    -344.600    -347.329
  C      611.106    -346.681    -348.359
  O      610.229    -346.331    -349.472
  C      612.541    -346.274    -348.764
  O      613.136    -347.410    -349.383
  C      612.252    -345.173    -349.774
  O      613.390    -344.861    -350.527
  C      611.073    -345.808    -350.520
  N      610.350    -344.878    -351.372
  C      610.237    -345.192    -352.726
  O      610.696    -346.212    -353.222
  N      609.596    -344.268    -353.499
  C      609.064    -343.080    -353.086
  O      608.477    -342.306    -353.822
  C      609.235    -342.784    -351.640
  C      609.855    -343.684    -350.878
  O      609.080    -342.478    -346.524
  O      608.753    -344.769    -345.431
  H      608.023    -344.268    -345.007
  H      614.182    -344.783    -349.948
  H      609.500    -344.498    -354.480
  H      608.844    -341.853    -351.285
  H      609.995    -343.489    -349.809
  H      611.402    -346.655    -351.115
  H      611.943    -344.256    -349.268
  H      613.136    -345.944    -347.904
  H      611.031    -347.773    -348.221
  H      609.617    -346.425    -346.796
  H      611.294    -346.122    -346.271
  P      614.707    -347.775    -349.236
  C      614.103    -349.829    -347.782
  O      614.906    -348.665    -347.890
  O      615.602    -346.589    -349.312
  O      615.023    -348.797    -350.416
  H      615.924    -348.648    -350.755
  H      614.321    -350.329    -346.861
  H      614.313    -350.484    -348.602
  H      613.070    -349.552    -347.802

 6  7  8  9  10  11  12  13  14  15  16  27  31  32  33  34  35 0
 6-311+G(2d,p)
 ****
 36  37 0
 6-311+G(2d,p)
 ****
 1  2  3  4  5  17  18  19  20  21  22  23  24  25 0
 3-21G
 ****
 26  28  29  30  38  39  40  41  42  43  44  45 0
 3-21G
 ****


