%nproc=1
%NoSave
%Mem=1900MB
#P OB98/GEN NMR

erre ene a

0 1
  C      223.474    -297.198     -70.158
  O      224.641    -296.420     -70.323
  H      222.961    -297.269     -71.121
  H      222.801    -296.729     -69.436
  H      223.738    -298.204     -69.823
  P      225.494    -296.101     -69.002
  C      225.455    -293.510     -69.200
  O      226.232    -294.700     -69.250
  C      226.335    -292.344     -68.758
  O      226.668    -292.486     -67.356
  C      227.671    -292.264     -69.485
  O      227.558    -291.690     -70.776
  C      228.465    -291.391     -68.531
  O      228.222    -289.995     -68.760
  C      227.936    -291.830     -67.153
  N      228.893    -292.686     -66.456
  C      229.430    -292.161     -65.283
  O      229.135    -291.050     -64.840
  N      230.356    -292.943     -64.647
  C      230.824    -294.144     -65.088
  O      231.698    -294.768     -64.500
  C      230.235    -294.642     -66.342
  C      229.312    -293.902     -66.961
  O      226.679    -297.174     -69.065
  O      224.727    -296.189     -67.724
  H      226.527    -297.874     -68.403
  H      227.254    -289.877     -68.696
  H      230.756    -292.578     -63.796
  H      230.585    -295.595     -66.722
  H      228.869    -294.241     -67.893
  H      227.741    -290.954     -66.521
  H      229.534    -291.554     -68.650
  H      228.137    -293.256     -69.533
  H      225.770    -291.411     -68.886
  H      224.640    -293.631     -68.479
  H      225.023    -293.323     -70.189
  P      227.880    -292.625     -72.040
  C      229.915    -291.101     -72.716
  O      228.681    -291.701     -73.077
  O      226.416    -292.775     -72.673
  O      228.541    -293.910     -71.670
  H      225.851    -292.009     -72.461
  H      230.287    -290.528     -73.539
  H      230.622    -291.863     -72.463
  H      229.766    -290.459     -71.873

 6  7  8  9  10  11  12  13  14  15  16  27  31  32  33  34  35 0
 6-311+G(2d,p)
 ****
 36  37 0
 6-311+G(2d,p)
 ****
 1  2  3  4  5  17  18  19  20  21  22  23  24  25 0
 3-21G
 ****
 26  28  29  30  38  39  40  41  42  43  44  45 0
 3-21G
 ****


