%nproc=1
%NoSave
%Mem=1900MB
#P OB98/GEN NMR

erre ene a

0 1
  C      172.947     102.145      83.336
  O      173.998     102.180      82.390
  H      173.270     101.552      84.200
  H      172.067     101.667      82.897
  H      172.692     103.151      83.680
  P      173.896     103.196      81.156
  C      175.156     105.047      82.434
  O      175.136     104.206      81.289
  C      176.214     106.146      82.280
  O      177.442     105.539      81.759
  C      175.814     107.274      81.303
  O      176.424     108.487      81.778
  C      176.474     106.799      80.020
  O      176.525     107.810      79.052
  C      177.805     106.293      80.585
  N      178.562     105.473      79.644
  C      179.013     106.087      78.480
  O      178.827     107.281      78.216
  N      179.690     105.281      77.602
  C      179.944     103.950      77.771
  O      180.574     103.278      76.959
  C      179.415     103.350      79.007
  C      178.763     104.127      79.875
  O      172.569     103.848      80.961
  O      174.302     102.296      79.892
  H      173.498     101.983      79.440
  H      177.166     108.507      79.318
  H      180.021     105.712      76.753
  H      179.585     102.289      79.161
  H      178.355     103.719      80.794
  H      178.431     107.128      80.917
  H      175.899     105.975      79.587
  H      174.731     107.410      81.230
  H      176.458     106.548      83.270
  H      175.386     104.431      83.310
  H      174.166     105.503      82.566
  P      175.580     109.776      82.225
  C      175.179     109.342      84.735
  O      175.886     110.104      83.769
  O      174.118     109.677      81.919
  O      176.234     111.010      81.435
  H      175.530     111.645      81.189
  H      175.469     109.653      85.717
  H      175.408     108.304      84.608
  H      174.127     109.494      84.609

 6  7  8  9  10  11  12  13  14  15  16  27  31  32  33  34  35 0
 6-311+G(2d,p)
 ****
 36  37 0
 6-311+G(2d,p)
 ****
 1  2  3  4  5  17  18  19  20  21  22  23  24  25 0
 3-21G
 ****
 26  28  29  30  38  39  40  41  42  43  44  45 0
 3-21G
 ****


