%nproc=1
%NoSave
%Mem=1900MB
#P OB98/GEN NMR

erre ene a

0 1
  C     -899.250     369.191    -734.850
  O     -899.860     370.214    -735.615
  H     -900.000     368.420    -734.645
  H     -898.890     369.605    -733.903
  H     -898.420     368.730    -735.400
  P     -898.930     371.300    -736.334
  C     -898.180     372.580    -734.223
  O     -897.790     371.718    -735.285
  C     -896.970     373.027    -733.402
  O     -896.290     374.107    -734.112
  C     -897.380     373.578    -732.031
  O     -896.350     373.391    -731.051
  C     -897.560     375.058    -732.298
  O     -897.430     375.862    -731.125
  C     -896.450     375.311    -733.335
  N     -897.050     380.355    -733.800
  C     -896.960     379.588    -732.646
  N     -897.020     380.259    -731.473
  N     -896.830     378.298    -732.658
  C     -896.840     377.757    -733.892
  C     -896.970     378.397    -735.109
  C     -897.070     379.842    -735.085
  O     -897.160     380.571    -736.081
  N     -896.960     377.513    -736.163
  C     -896.830     376.335    -735.588
  N     -896.740     376.425    -734.219
  O     -899.860     372.616    -736.398
  O     -898.430     370.917    -737.703
  H     -898.150     375.648    -730.525
  H     -899.550     373.206    -737.104
  H     -897.120     381.355    -733.730
  H     -896.800     375.377    -736.121
  H     -895.490     375.520    -732.832
  H     -898.550     375.217    -732.691
  H     -897.320     381.233    -731.424
  H     -898.300     373.136    -731.663
  H     -897.260     379.698    -730.643
  H     -896.240     372.202    -733.327
  H     -898.890     372.030    -733.608
  H     -898.720     373.454    -734.614
  P     -896.620     372.384    -729.841
  C     -897.970     374.110    -728.352
  O     -897.890     372.860    -728.995
  O     -895.390     372.648    -728.835
  O     -896.710     370.938    -730.243
  H     -894.840     371.852    -728.776
  H     -898.913     374.195    -727.854
  H     -897.878     374.891    -729.078
  H     -897.179     374.194    -727.636

 6  7  8  9  10  11  12  13  14  15  26  29  33  34 0
 6-311+G(2d,p)
 ****
 36  38  39  40  41 0
 6-311+G(2d,p)
 ****
 1  2  3  4  5  16  17  18  19  20  21  22  23  24  25 0
 3-21G
 ****
 27  28  30  31  32  35  37  42  43  44  45  46  47 0
 3-21G
 ****
 48  49 0
 3-21G
 ****


