%nproc=1
%NoSave
%Mem=1900MB
#P OB98/GEN NMR

erre ene a

0 1
  C      -24.935    -129.578    -332.389
  O      -26.139    -128.979    -331.963
  H      -24.902    -130.603    -332.014
  H      -24.080    -129.027    -331.990
  H      -24.887    -129.601    -333.482
  P      -26.411    -127.463    -332.428
  C      -25.872    -125.149    -331.361
  O      -25.953    -126.559    -331.179
  C      -25.632    -124.451    -330.021
  O      -26.728    -124.754    -329.124
  C      -24.334    -124.882    -329.336
  O      -23.681    -123.732    -328.797
  C      -24.790    -125.810    -328.226
  O      -23.866    -125.850    -327.140
  C      -26.178    -125.249    -327.890
  N      -27.043    -126.261    -327.288
  C      -26.626    -126.809    -326.070
  O      -25.563    -126.442    -325.561
  N      -27.383    -127.789    -325.488
  C      -28.440    -128.234    -326.097
  N      -29.137    -129.225    -325.479
  C      -28.892    -127.722    -327.407
  C      -28.160    -126.745    -327.934
  O      -28.005    -127.362    -332.406
  O      -25.795    -127.079    -333.732
  H      -23.714    -124.927    -326.834
  H      -28.322    -126.552    -332.874
  H      -29.770    -128.137    -327.882
  H      -28.416    -126.307    -328.895
  H      -26.095    -124.403    -327.193
  H      -24.886    -126.830    -328.621
  H      -23.646    -125.393    -330.009
  H      -25.655    -123.367    -330.185
  H      -28.791    -129.557    -324.590
  H      -26.810    -124.795    -331.801
  H      -29.956    -129.665    -325.875
  H      -25.047    -124.924    -332.045
  P      -22.182    -123.467    -329.320
  C      -19.789    -124.146    -328.587
  O      -21.182    -124.227    -328.319
  O      -21.946    -121.918    -328.997
  O      -21.989    -123.787    -330.764
  H      -22.076    -121.380    -329.803
  H      -19.250    -124.695    -327.844
  H      -19.481    -123.122    -328.567
  H      -19.587    -124.560    -329.553

 6  7  8  9  10  11  12  13  14  15  16  26  30  31  32  33  35 0
 6-311+G(2d,p)
 ****
 37  38 0
 6-311+G(2d,p)
 ****
 1  2  3  4  5  17  18  19  20  21  22  23  24  25 0
 3-21G
 ****
 27  28  29  34  36  39  40  41  42  43  44  45  46 0
 3-21G
 ****


