%nproc=1
%NoSave
%Mem=1900MB
#P OB98/GEN NMR

erre ene a

0 1
  C      -16.502    -115.407     144.997
  O      -17.122    -114.165     144.638
  P      -16.270    -112.830     144.380
  C      -16.799    -110.371     143.824
  O      -17.258    -111.567     144.448
  C      -17.955    -109.414     143.515
  O      -18.788    -109.942     142.465
  C      -18.883    -109.142     144.694
  O      -18.303    -108.203     145.581
  C      -20.141    -108.659     143.978
  O      -20.013    -107.272     143.618
  C      -20.148    -109.539     142.722
  N      -24.982    -111.133     143.213
  C      -24.447    -109.901     143.072
  N      -23.147    -109.556     142.952
  C      -22.366    -110.650     142.961
  C      -22.768    -111.969     143.100
  C      -24.148    -112.199     143.232
  N      -24.688    -113.454     143.390
  N      -21.679    -112.815     143.090
  C      -20.638    -112.021     142.929
  N      -21.002    -110.705     142.845
  O      -15.418    -112.874     143.154
  O      -15.366    -112.665     145.692
  H      -20.858    -106.994     143.222
  H      -14.545    -112.188     145.466
  H      -25.160    -109.080     143.056
  H      -19.610    -112.351     142.864
  H      -20.481    -108.981     141.839
  H      -21.041    -108.755     144.591
  H      -19.103    -110.077     145.222
  H      -17.522    -108.475     143.146
  H      -16.288    -110.641     142.892
  H      -25.686    -113.532     143.513
  H      -24.070    -114.249     143.453
  H      -16.080    -109.883     144.492
  P      -17.002    -108.596     146.428
  C      -14.770    -107.340     146.287
  O      -16.142    -107.257     146.623
  O      -16.237    -109.775     145.927
  O      -17.575    -108.860     147.901
  H      -17.015    -109.520     148.351
  H      -14.223    -107.810     147.109
  H      -14.385    -106.328     146.137
  H      -14.624    -107.917     145.370
  H      -17.254    -116.159     145.119
  H      -15.966    -115.286     145.915
  H      -15.824    -115.703     144.224

 3  4  5  6  7  8  9  10  11  12  22  25  29  30  31  32 0
 6-311+G(2d,p)
 ****
 33  36  37 0
 6-311+G(2d,p)
 ****
 1  2  13  14  15  16  17  18  19  20  21  23  24  26 0
 3-21G
 ****
 27  28  34  35  38  39  40  41  42  43  44  45  46  47  48 0
 3-21G
 ****


