%nproc=1
%NoSave
%Mem=1900MB
#P OB98/GEN NMR

erre ene a

0 1
  C     -294.741    -140.703     362.136
  O     -293.843    -140.877     361.052
  H     -294.417    -141.340     362.962
  H     -295.750    -140.998     361.833
  H     -294.739    -139.661     362.466
  P     -294.002    -139.863     359.823
  C     -291.477    -139.764     359.113
  O     -292.805    -140.167     358.794
  C     -290.485    -140.851     358.696
  O     -290.368    -141.852     359.723
  C     -290.902    -141.640     357.463
  O     -290.783    -140.895     356.273
  C     -289.941    -142.818     357.545
  O     -288.673    -142.507     356.966
  C     -289.808    -143.029     359.080
  N     -290.448    -144.257     359.517
  C     -289.673    -145.419     359.368
  O     -288.532    -145.338     358.925
  N     -290.231    -146.621     359.701
  C     -291.459    -146.668     360.116
  N     -291.967    -147.905     360.395
  C     -292.308    -145.473     360.282
  C     -291.740    -144.307     359.961
  O     -293.578    -138.462     360.474
  O     -295.352    -139.858     359.188
  H     -288.171    -143.350     356.931
  H     -292.742    -138.497     360.970
  H     -293.329    -145.567     360.643
  H     -292.296    -143.380     360.059
  H     -288.752    -143.066     359.367
  H     -290.329    -143.689     357.018
  H     -291.927    -142.016     357.590
  H     -289.500    -140.376     358.553
  H     -291.364    -148.697     360.219
  H     -291.383    -139.549     360.186
  H     -292.926    -148.074     360.649
  H     -291.274    -138.830     358.576
  P     -291.553    -141.315     354.940
  C     -292.046    -138.926     354.082
  O     -291.313    -140.137     353.868
  O     -292.990    -141.682     355.128
  O     -290.653    -142.492     354.345
  H     -289.737    -142.243     354.145
  H     -291.806    -138.223     353.312
  H     -291.785    -138.515     355.035
  H     -293.095    -139.135     354.059

 6  7  8  9  10  11  12  13  14  15  16  26  30  31  32  33  35 0
 6-311+G(2d,p)
 ****
 37  38 0
 6-311+G(2d,p)
 ****
 1  2  3  4  5  17  18  19  20  21  22  23  24  25 0
 3-21G
 ****
 27  28  29  34  36  39  40  41  42  43  44  45  46 0
 3-21G
 ****


