%nproc=1
%NoSave
%Mem=1900MB
#P OB98/GEN NMR

erre ene a

0 1
  C      294.219    -118.137     142.883
  O      293.299    -119.204     142.754
  H      293.666    -117.226     143.124
  H      294.767    -117.978     141.950
  H      294.922    -118.346     143.696
  P      293.833    -120.592     142.151
  C      293.381    -119.438     139.885
  O      294.266    -120.265     140.637
  C      294.158    -118.368     139.111
  O      295.120    -117.732     139.973
  C      294.965    -118.919     137.946
  O      294.181    -119.392     136.871
  C      295.987    -117.817     137.706
  O      295.514    -116.782     136.851
  C      296.198    -117.260     139.135
  N      297.503    -117.619     139.676
  C      298.597    -117.002     139.075
  O      298.500    -116.214     138.131
  N      299.823    -117.349     139.567
  C      300.059    -118.270     140.545
  O      301.186    -118.571     140.915
  C      298.866    -118.910     141.127
  C      297.659    -118.558     140.671
  O      292.899    -121.760     142.274
  O      295.236    -120.813     142.889
  H      296.112    -116.018     136.966
  H      295.539    -121.748     142.807
  H      300.627    -116.906     139.151
  H      299.015    -119.649     141.903
  H      296.764    -119.019     141.081
  H      296.126    -116.165     139.129
  H      296.904    -118.212     137.256
  H      295.531    -119.785     138.308
  H      293.447    -117.603     138.773
  H      292.702    -118.948     140.593
  H      292.793    -120.054     139.197
  P      293.940    -120.941     136.578
  C      294.500    -120.676     134.051
  O      294.793    -121.346     135.276
  O      292.534    -121.438     136.694
  O      294.791    -121.627     137.764
  H      294.325    -122.441     138.030
  H      295.142    -121.047     133.279
  H      294.659    -119.625     134.173
  H      293.480    -120.854     133.782

 6  7  8  9  10  11  12  13  14  15  16  26  31  32  33  34  35 0
 6-311+G(2d,p)
 ****
 36  37 0
 6-311+G(2d,p)
 ****
 1  2  3  4  5  17  18  19  20  21  22  23  24  25 0
 3-21G
 ****
 27  28  29  30  38  39  40  41  42  43  44  45 0
 3-21G
 ****


