%nproc=1
%NoSave
%Mem=1900MB
#P OB98/GEN NMR

erre ene a

0 1
  C       -5.297      11.093    -221.531
  O       -4.974      11.164    -222.909
  P       -3.449      10.893    -223.332
  C       -3.756      11.237    -225.892
  O       -3.199      11.726    -224.680
  C       -3.566      12.258    -227.010
  O       -4.527      13.327    -226.895
  C       -2.205      12.942    -227.005
  O       -1.199      12.147    -227.609
  C       -2.491      14.170    -227.853
  O       -2.462      13.821    -229.250
  C       -3.919      14.532    -227.424
  N       -3.900      19.531    -226.657
  C       -4.052      18.819    -227.829
  N       -4.155      19.543    -228.963
  N       -4.104      17.514    -227.885
  C       -3.980      16.921    -226.672
  C       -3.826      17.521    -225.443
  C       -3.760      18.964    -225.396
  O       -3.574      19.650    -224.397
  N       -3.744      16.591    -224.441
  C       -3.849      15.431    -225.057
  N       -3.949      15.578    -226.416
  O       -3.469       9.376    -223.838
  O       -2.453      11.110    -222.244
  H       -3.194      13.190    -229.396
  H       -2.561       9.018    -223.863
  H       -3.862      20.537    -226.667
  H       -3.839      14.466    -224.566
  H       -4.530      14.860    -228.270
  H       -1.757      14.967    -227.709
  H       -4.060      20.549    -228.995
  H       -1.922      13.258    -225.992
  H       -4.203      19.046    -229.845
  H       -3.738      11.750    -227.967
  H       -4.822      11.047    -225.747
  H       -3.271      10.291    -226.157
  P        0.192      12.018    -226.816
  C        1.078      11.205    -229.119
  O        1.324      11.960    -227.949
  O        0.144      10.524    -226.244
  O        0.388      13.032    -225.739
  H        0.689      10.450    -225.438
  H        1.814      11.486    -229.878
  H        0.078      11.401    -229.513
  H        1.186      10.139    -228.901
  H       -6.340      11.294    -221.398
  H       -4.723      11.818    -220.992
  H       -5.073      10.114    -221.162

 3  4  5  6  7  8  9  10  11  12  23  26  30  31 0
 6-311+G(2d,p)
 ****
 33  35  36  37  38 0
 6-311+G(2d,p)
 ****
 1  2  13  14  15  16  17  18  19  20  21  22  24  25 0
 3-21G
 ****
 27  28  29  32  34  39  40  41  42  43  44  45  46  47  48  49 0
 3-21G
 ****


