%nproc=1
%NoSave
%Mem=1900MB
#P OB98/GEN NMR

erre ene a

0 1
  C       34.647    -237.700     -36.446
  O       35.535    -237.181     -37.415
  H       34.484    -238.763     -36.650
  H       33.686    -237.180     -36.498
  H       35.074    -237.594     -35.444
  P       35.907    -235.625     -37.296
  C       37.714    -235.562     -35.433
  O       37.448    -235.565     -36.829
  C       38.960    -236.396     -35.126
  O       38.814    -237.707     -35.747
  C       40.266    -235.780     -35.649
  O       41.309    -236.029     -34.698
  C       40.547    -236.583     -36.911
  O       41.925    -236.557     -37.268
  C       40.024    -237.954     -36.492
  N       42.275    -240.652     -40.099
  C       42.813    -239.929     -39.052
  N       44.162    -239.919     -38.947
  N       42.094    -239.269     -38.183
  C       40.756    -239.390     -38.388
  C       40.099    -240.063     -39.394
  C       40.912    -240.772     -40.361
  O       40.493    -241.413     -41.324
  N       38.736    -239.915     -39.278
  C       38.576    -239.155     -38.211
  N       39.773    -238.814     -37.634
  O       35.108    -235.148     -35.991
  O       35.580    -234.793     -38.489
  H       42.026    -237.053     -38.108
  H       34.859    -234.210     -36.059
  H       42.873    -241.130     -40.746
  H       37.625    -238.820     -37.815
  H       40.730    -238.487     -35.841
  H       39.963    -236.182     -37.748
  H       44.779    -240.427     -39.560
  H       40.197    -234.706     -35.846
  H       44.575    -239.402     -38.175
  H       39.009    -236.565     -34.045
  H       36.852    -235.985     -34.904
  H       37.866    -234.530     -35.098
  P       41.787    -234.804     -33.779
  C       40.673    -234.781     -31.431
  O       41.739    -235.262     -32.239
  O       40.562    -233.770     -33.897
  O       43.066    -234.176     -34.226
  H       40.829    -233.007     -34.443
  H       40.775    -235.168     -30.439
  H       39.739    -235.101     -31.845
  H       40.702    -233.712     -31.401

 6  7  8  9  10  11  12  13  14  15  26  29  33  34 0
 6-311+G(2d,p)
 ****
 36  38  39  40  41 0
 6-311+G(2d,p)
 ****
 1  2  3  4  5  16  17  18  19  20  21  22  23  24  25 0
 3-21G
 ****
 27  28  30  31  32  35  37  42  43  44  45  46  47 0
 3-21G
 ****
 48  49 0
 3-21G
 ****


