%nproc=1
%NoSave
%Mem=1900MB
#P OB98/GEN NMR

erre ene a

0 1
  C     -203.749    -144.085    -126.634
  O     -204.638    -145.185    -126.583
  H     -204.168    -143.268    -126.043
  H     -203.627    -143.748    -127.667
  H     -202.778    -144.364    -126.216
  P     -204.195    -146.505    -127.378
  C     -202.782    -147.250    -125.326
  O     -202.811    -146.985    -126.723
  C     -202.052    -148.563    -125.067
  O     -202.828    -149.666    -125.592
  C     -200.696    -148.660    -125.751
  O     -199.687    -147.948    -125.058
  C     -200.478    -150.166    -125.758
  O     -199.946    -150.625    -124.510
  C     -201.897    -150.709    -125.965
  N     -202.205    -154.725    -129.100
  C     -202.045    -154.636    -127.762
  N     -201.986    -153.525    -126.998
  C     -202.141    -152.422    -127.753
  C     -202.314    -152.358    -129.124
  C     -202.348    -153.584    -129.813
  N     -202.485    -153.674    -131.178
  N     -202.396    -151.045    -129.544
  C     -202.281    -150.328    -128.443
  N     -202.129    -151.118    -127.337
  O     -203.762    -145.936    -128.809
  O     -205.244    -147.558    -127.492
  H     -199.713    -151.566    -124.643
  H     -204.486    -146.076    -129.448
  H     -201.942    -155.581    -127.237
  H     -202.294    -149.246    -128.398
  H     -202.107    -151.575    -125.328
  H     -199.778    -150.454    -126.544
  H     -200.771    -148.311    -126.787
  H     -201.953    -148.703    -123.982
  H     -203.807    -147.325    -124.948
  H     -202.277    -146.421    -124.819
  H     -202.432    -154.582    -131.610
  H     -202.477    -152.824    -131.729
  P     -198.348    -147.584    -125.857
  C     -199.206    -145.460    -127.103
  O     -198.785    -146.813    -127.193
  O     -197.821    -149.000    -126.387
  O     -197.313    -146.877    -125.047
  H     -196.844    -149.015    -126.377
  H     -199.460    -145.100    -128.078
  H     -198.413    -144.866    -126.699
  H     -200.062    -145.395    -126.464

 6  7  8  9  10  11  12  13  14  15  25  28  32  33  34  35 0
 6-311+G(2d,p)
 ****
 36  37  40 0
 6-311+G(2d,p)
 ****
 1  2  3  4  5  16  17  18  19  20  21  22  23  24 0
 3-21G
 ****
 26  27  29  30  31  38  39 41  42  43  44  45  46  47  48 0
 3-21G
 ****


