%nproc=1
%NoSave
%Mem=1900MB
#P OB98/GEN NMR

erre ene a

0 1
  C     -435.514     -29.908     -42.924
  O     -435.689     -28.733     -42.156
  H     -436.053     -29.791     -43.872
  H     -435.921     -30.769     -42.394
  H     -434.453     -30.065     -43.140
  P     -434.977     -28.700     -40.716
  C     -433.748     -26.433     -41.025
  O     -434.783     -27.143     -40.352
  C     -434.067     -24.935     -41.052
  O     -435.115     -24.697     -42.038
  C     -434.562     -24.377     -39.712
  O     -434.032     -23.063     -39.534
  C     -436.065     -24.279     -39.913
  O     -436.664     -23.329     -39.036
  C     -436.126     -23.905     -41.391
  N     -439.527     -22.140     -44.657
  C     -438.268     -21.672     -44.334
  N     -437.839     -20.564     -44.982
  N     -437.487     -22.247     -43.454
  C     -438.026     -23.362     -42.909
  C     -439.267     -23.916     -43.132
  C     -440.128     -23.262     -44.092
  O     -441.259     -23.607     -44.399
  N     -439.457     -25.032     -42.349
  C     -438.336     -25.147     -41.656
  N     -437.438     -24.161     -41.964
  O     -433.485     -29.195     -41.024
  O     -435.633     -29.516     -39.655
  H     -436.291     -22.452     -39.245
  H     -433.107     -29.658     -40.254
  H     -440.090     -21.654     -45.335
  H     -438.131     -25.920     -40.926
  H     -435.903     -22.844     -41.563
  H     -436.532     -25.258     -39.733
  H     -438.373     -20.085     -45.696
  H     -434.294     -24.997     -38.854
  H     -436.912     -20.210     -44.769
  H     -433.179     -24.398     -41.400
  H     -433.669     -26.811     -42.052
  H     -432.801     -26.598     -40.504
  P     -433.948     -22.491     -38.037
  C     -431.452     -21.767     -37.927
  O     -432.808     -21.354     -37.979
  O     -433.293     -23.707     -37.229
  O     -435.269     -22.099     -37.461
  H     -433.960     -24.121     -36.652
  H     -430.818     -20.906     -37.893
  H     -431.222     -22.345     -38.797
  H     -431.294     -22.362     -37.052

 6  7  8  9  10  11  12  13  14  15  26  29  33  34 0
 6-311+G(2d,p)
 ****
 36  38  39  40  41 0
 6-311+G(2d,p)
 ****
 1  2  3  4  5  16  17  18  19  20  21  22  23  24  25 0
 3-21G
 ****
 27  28  30  31  32  35  37  42  43  44  45  46  47 0
 3-21G
 ****
 48  49 0
 3-21G
 ****


