%nproc=1
%NoSave
%Mem=1900MB
#P OB98/GEN NMR

erre ene a

0 1
  C      116.073     -11.437      64.615
  O      116.173     -11.407      66.043
  P      116.512     -12.807      66.761
  C      117.532     -11.825      68.938
  O      116.475     -12.573      68.350
  C      117.192     -10.335      69.035
  O      116.015     -10.168      69.863
  C      118.296      -9.462      69.642
  O      118.307      -8.198      68.964
  C      117.809      -9.214      71.057
  O      118.383      -8.041      71.628
  C      116.302      -9.135      70.820
  N      113.770      -6.822      74.536
  C      114.337      -6.293      73.394
  N      114.233      -4.958      73.232
  N      114.950      -7.012      72.490
  C      114.950      -8.339      72.767
  C      114.414      -8.983      73.860
  C      113.775      -8.170      74.872
  O      113.300      -8.572      75.932
  N      114.614     -10.341      73.790
  C      115.276     -10.514      72.664
  N      115.510      -9.328      72.012
  O      118.065     -13.016      66.433
  O      115.692     -13.951      66.265
  H      118.341      -7.341      70.950
  H      118.198     -13.872      65.983
  H      113.327      -6.221      75.210
  H      115.630     -11.463      72.285
  H      116.019      -8.174      70.375
  H      118.075     -10.069      71.690
  H      113.718      -4.356      73.855
  H      119.296      -9.909      69.614
  H      114.602      -4.558      72.377
  H      116.934      -9.978      68.031
  H      118.439     -11.947      68.340
  H      117.735     -12.231      69.936
  P      119.480      -7.973      67.891
  C      118.263      -6.425      66.192
  O      119.205      -6.536      67.241
  O      119.108      -8.997      66.719
  O      120.852      -8.197      68.431
  H      119.915      -9.265      66.237
  H      117.669      -7.334      66.072
  H      118.792      -6.222      65.258
  H      117.589      -5.591      66.408
  H      115.846     -10.456      64.253
  H      115.295     -12.113      64.326
  H      117.003     -11.764      64.199

 3  4  5  6  7  8  9  10  11  12  23  26  30  31  33  0
 6-311+G(2d,p)
 ****
 35  36  37  38 0
 6-311+G(2d,p)
 ****
 1  2  13  14  15  16  17  18  19  20  21  22  24  25  27  28  29 0
 3-21G
 ****
 32  34  39  40  41  42  43  44  45  46  47  48  49 0
 3-21G
 ****


