%nproc=1
%NoSave
%Mem=1900MB
#P OB98/GEN NMR

erre ene a

0 1
  C      865.041    -129.545     408.858
  O      864.065    -129.495     407.839
  H      865.784    -128.763     408.680
  H      865.543    -130.518     408.851
  H      864.581    -129.373     409.841
  P      862.754    -130.396     408.027
  C      860.827    -130.214     409.762
  O      861.730    -129.528     408.910
  C      860.041    -129.207     410.608
  O      860.945    -128.630     411.594
  C      859.435    -128.050     409.798
  O      858.169    -127.711     410.379
  C      860.416    -126.916     410.038
  O      859.854    -125.623     409.850
  C      860.826    -127.192     411.489
  N      862.084    -126.540     411.845
  C      862.216    -126.077     413.153
  O      861.385    -126.250     414.046
  N      863.370    -125.381     413.428
  C      864.359    -125.094     412.534
  O      865.357    -124.445     412.827
  C      864.161    -125.600     411.166
  C      863.053    -126.286     410.897
  O      863.243    -131.538     409.037
  O      862.173    -130.956     406.765
  H      863.603    -132.296     408.547
  H      859.839    -125.448     408.890
  H      863.477    -125.035     414.363
  H      864.927    -125.382     410.427
  H      862.862    -126.658     409.887
  H      860.034    -126.876     412.176
  H      861.276    -127.013     409.363
  H      859.308    -128.269     408.736
  H      859.257    -129.749     411.157
  H      861.386    -130.878     410.431
  H      860.146    -130.820     409.158
  P      856.865    -128.440     409.784
  C      856.208    -130.976     409.835
  O      856.811    -129.866     410.501
  O      857.342    -128.754     408.289
  O      855.633    -127.599     409.894
  H      858.294    -128.981     408.230
  H      856.263    -131.841     410.462
  H      856.726    -131.166     408.918
  H      855.183    -130.752     409.626

 6  7  8  9  10  11  12  13  14  15  16  27  31  32  33  34  35 0
 6-311+G(2d,p)
 ****
 36  37 0
 6-311+G(2d,p)
 ****
 1  2  3  4  5  17  18  19  20  21  22  23  24  25 0
 3-21G
 ****
 26  28  29  30  38  39  40  41  42  43  44  45 0
 3-21G
 ****


