%nproc=1
%NoSave
%Mem=1900MB
#P OB98/GEN NMR

erre ene a

0 1
  C     -211.784    -673.263     140.605
  O     -211.232    -671.962     140.612
  P     -209.809    -671.783     141.358
  C     -210.894    -670.826     143.539
  O     -210.118    -671.852     142.929
  C     -210.456    -670.640     144.990
  O     -211.010    -671.678     145.821
  C     -208.948    -670.685     145.193
  O     -208.363    -669.435     144.881
  C     -208.857    -671.054     146.672
  O     -209.040    -669.891     147.504
  C     -210.022    -672.039     146.826
  N     -209.520    -676.448     149.257
  C     -209.758    -675.178     149.756
  N     -209.931    -675.081     151.093
  N     -209.827    -674.106     149.010
  C     -209.620    -674.350     147.689
  C     -209.361    -675.555     147.088
  C     -209.340    -676.743     147.909
  O     -209.229    -677.900     147.514
  N     -209.187    -675.413     145.732
  C     -209.371    -674.120     145.526
  N     -209.659    -673.433     146.680
  O     -209.459    -670.243     141.091
  O     -208.727    -672.714     140.899
  H     -209.303    -670.184     148.397
  H     -208.830    -670.160     140.347
  H     -209.495    -677.234     149.878
  H     -209.334    -673.641     144.557
  H     -210.515    -671.945     147.805
  H     -207.881    -671.477     146.932
  H     -209.869    -675.856     151.728
  H     -208.505    -671.490     144.587
  H     -210.103    -674.151     151.481
  H     -210.859    -669.679     145.336
  H     -211.953    -671.115     143.505
  H     -210.777    -669.895     142.974
  P     -206.859    -669.440     144.311
  C     -205.650    -668.452     146.386
  O     -205.881    -669.583     145.571
  O     -206.648    -667.929     143.823
  O     -206.629    -670.410     143.197
  H     -206.097    -667.918     143.018
  H     -205.449    -668.793     147.406
  H     -206.527    -667.784     146.407
  H     -204.790    -667.904     146.011
  H     -212.719    -673.251     140.085
  H     -211.940    -673.590     141.612
  H     -211.111    -673.933     140.113

 3  4  5  6  7  8  9  10  11  12  23  26  30  31 0
 6-311+G(2d,p)
 ****
 33  35  36  37  38 0
 6-311+G(2d,p)
 ****
 1  2  13  14  15  16  17  18  19  20  21  22  24  25 0
 3-21G
 ****
 27  28  29  32  34  39  40  41  42  43  44  45  46  47  48  49 0
 3-21G
 ****


