%nproc=1
%NoSave
%Mem=1900MB
#P OB98/GEN NMR

erre ene a

0 1
  C      187.691      48.780    -187.551
  O      186.773      49.385    -188.447
  P      185.472      50.088    -187.822
  C      183.710      49.315    -186.027
  O      184.774      48.976    -186.902
  C      182.619      48.241    -186.082
  O      182.080      48.159    -187.421
  C      183.095      46.833    -185.748
  O      183.263      46.651    -184.352
  C      181.986      45.991    -186.371
  O      180.844      45.947    -185.499
  C      181.654      46.796    -187.644
  N      182.264      46.242    -188.853
  C      181.421      46.089    -189.951
  O      180.230      46.395    -189.933
  N      181.996      45.549    -191.073
  C      183.281      45.101    -191.181
  O      183.733      44.586    -192.196
  C      184.114      45.260    -189.977
  C      183.576      45.814    -188.887
  O      184.541      50.187    -189.120
  O      185.771      51.388    -187.155
  H      184.747      49.489    -189.767
  H      180.801      46.817    -185.056
  H      181.412      45.450    -191.891
  H      185.135      44.906    -190.022
  H      184.171      45.930    -187.990
  H      180.566      46.838    -187.793
  H      182.298      44.957    -186.558
  H      184.042      46.629    -186.261
  H      181.807      48.543    -185.408
  H      183.293      50.280    -186.329
  H      184.104      49.409    -185.008
  P      184.339      45.538    -183.896
  C      184.467      42.951    -184.232
  O      183.675      44.118    -184.221
  O      184.254      45.663    -182.300
  O      185.703      45.758    -184.464
  H      183.344      45.756    -181.975
  H      183.811      42.083    -184.113
  H      185.198      42.955    -183.419
  H      184.988      42.872    -185.190
  H      188.502      48.355    -188.104
  H      187.195      48.010    -186.998
  H      188.069      49.518    -186.875

 3  4  5  6  7  8  9  10  11  12  13  24  28  29  30  31  32 0
 6-311+G(2d,p)
 ****
 33  34 0
 6-311+G(2d,p)
 ****
 1  2  14  15  16  17  18  19  20  21  22  23  25  26  27 0
 3-21G
 ****
 35  36  37  38  39  40  41  42  43  44  45 0
 3-21G
 ****


