%nproc=1
%NoSave
%Mem=1900MB
#P OB98/GEN NMR

erre ene a

0 1
  C      244.254     -97.708     -57.039
  O      244.233     -99.123     -57.024
  H      243.777     -97.341     -56.127
  H      243.698     -97.334     -57.905
  H      245.288     -97.342     -57.071
  P      245.037     -99.874     -58.189
  C      244.858     -99.116     -60.698
  O      244.211     -99.653     -59.557
  C      243.815     -98.600     -61.690
  O      243.178     -97.403     -61.209
  C      244.396     -98.191     -63.036
  O      244.815     -99.292     -63.811
  C      243.213     -97.434     -63.626
  O      242.230     -98.340     -64.150
  C      242.668     -96.692     -62.378
  N      243.032     -95.286     -62.353
  C      242.528     -94.513     -63.406
  O      241.815     -95.030     -64.276
  N      242.872     -93.178     -63.473
  C      243.625     -92.667     -62.554
  N      243.938     -91.345     -62.672
  C      244.154     -93.438     -61.410
  C      243.828     -94.728     -61.380
  O      244.769    -101.417     -57.858
  O      246.479     -99.504     -58.310
  H      241.525     -97.783     -64.540
  H      243.827    -101.637     -57.770
  H      244.774     -92.955     -60.663
  H      244.175     -95.364     -60.574
  H      241.573     -96.770     -62.332
  H      243.512     -96.782     -64.442
  H      245.215     -97.474     -62.889
  H      243.045     -99.377     -61.806
  H      243.568     -90.854     -63.485
  H      245.509     -99.857     -61.169
  H      244.537     -90.842     -62.041
  H      245.493     -98.291     -60.358
  P      245.939     -99.111     -64.945
  C      246.785     -96.993     -66.138
  O      245.648     -97.694     -65.642
  O      246.072    -100.254     -65.892
  O      247.268     -98.808     -64.096
  H      247.221     -98.016     -63.534
  H      246.471     -96.069     -66.578
  H      247.278     -97.590     -66.877
  H      247.460     -96.793     -65.332

 6  7  8  9  10  11  12  13  14  15  16  26  30  31  32  33  35 0
 6-311+G(2d,p)
 ****
 37  38 0
 6-311+G(2d,p)
 ****
 1  2  3  4  5  17  18  19  20  21  22  23  24  25 0
 3-21G
 ****
 27  28  29  34  36  39  40  41  42  43  44  45  46 0
 3-21G
 ****


