%nproc=1
%NoSave
%Mem=1900MB
#P OB98/GEN NMR

erre ene a

0 1
  C       -6.799     -99.326     177.759
  O       -7.043     -99.349     176.367
  H       -6.714    -100.346     178.142
  H       -5.858     -98.801     177.944
  H       -7.605     -98.799     178.277
  P       -8.380    -100.100     175.893
  C       -6.939    -101.117     174.000
  O       -8.166    -100.493     174.349
  C       -6.910    -101.414     172.502
  O       -8.060    -102.240     172.182
  C       -6.959    -100.161     171.612
  O       -5.920    -100.201     170.628
  C       -8.300    -100.260     170.907
  O       -8.268     -99.746     169.581
  C       -8.584    -101.755     170.940
  N      -12.145    -104.004     168.066
  C      -10.810    -104.189     168.139
  N       -9.930    -103.628     168.993
  C      -10.562    -102.820     169.861
  C      -11.919    -102.550     169.927
  C      -12.726    -103.169     168.958
  N      -14.081    -102.938     168.847
  N      -12.195    -101.663     170.951
  C      -11.020    -101.368     171.467
  N      -10.002    -102.032     170.832
  O       -9.462     -98.918     175.836
  O       -8.823    -101.205     176.790
  H       -7.984     -98.814     169.637
  H      -10.179     -99.119     176.466
  H      -10.389    -104.874     167.408
  H      -10.843    -100.655     172.262
  H       -8.069    -102.285     170.128
  H       -9.047     -99.697     171.481
  H       -6.878     -99.233     172.187
  H       -6.015    -102.007     172.278
  H       -6.835    -102.058     174.552
  H      -14.562    -103.329     168.055
  H      -14.498    -102.231     169.439
  H       -6.111    -100.456     174.275
  P       -4.591     -99.357     170.962
  C       -4.998     -97.682     169.018
  O       -4.113     -98.626     169.613
  O       -3.489    -100.494     171.199
  O       -4.725     -98.473     172.155
  H       -3.086    -100.389     172.081
  H       -4.549     -97.280     168.134
  H       -5.193     -96.890     169.711
  H       -5.917     -98.167     168.762

 6  7  8  9  10  11  12  13  14  15  25  28  32  33  34  35 0
 6-311+G(2d,p)
 ****
 36  39  40 0
 6-311+G(2d,p)
 ****
 1  2  3  4  5  16  17  18  19  20  21  22  23  24 0
 3-21G
 ****
 26  27  29  30  31  37  38  41  42  43  44  45  46  47  48 0
 3-21G
 ****


