%nproc=1
%NoSave
%Mem=1900MB
#P OB98/GEN NMR

erre ene a

0 1
  C      -42.454     -10.399    -233.213
  O      -43.323      -9.880    -232.230
  H      -41.995      -9.566    -233.751
  H      -43.020     -11.008    -233.923
  H      -41.661     -11.004    -232.763
  P      -43.847     -10.851    -231.071
  C      -43.838      -8.914    -229.366
  O      -44.600      -9.938    -229.989
  C      -44.680      -8.144    -228.342
  O      -45.668      -7.341    -229.031
  C      -45.449      -9.118    -227.441
  O      -45.698      -8.572    -226.149
  C      -46.770      -9.282    -228.175
  O      -47.826      -9.734    -227.329
  C      -46.972      -7.873    -228.733
  N      -50.632     -10.129    -231.467
  C      -49.978     -10.585    -230.341
  N      -50.329     -11.812    -229.893
  N      -49.052      -9.905    -229.716
  C      -48.749      -8.728    -230.317
  C      -49.309      -8.183    -231.449
  C      -50.361      -8.926    -232.108
  O      -50.963      -8.579    -233.121
  N      -48.728      -6.980    -231.767
  C      -47.815      -6.801    -230.836
  N      -47.798      -7.829    -229.922
  O      -42.509     -11.275    -230.295
  O      -44.617     -12.052    -231.530
  H      -48.593      -9.929    -227.898
  H      -42.632     -12.129    -229.846
  H      -51.350     -10.686    -231.900
  H      -47.147      -5.947    -230.769
  H      -47.438      -7.225    -227.981
  H      -46.636     -10.038    -228.956
  H      -50.904     -12.437    -230.437
  H      -44.930     -10.070    -227.330
  H      -49.670     -12.275    -229.263
  H      -44.046      -7.452    -227.773
  H      -43.498      -8.235    -230.158
  H      -42.949      -9.338    -228.893
  P      -45.408      -9.507    -224.879
  C      -44.338      -7.600    -223.427
  O      -45.358      -8.571    -223.580
  O      -43.887      -9.963    -225.094
  O      -46.334     -10.672    -224.764
  H      -43.855     -10.895    -225.388
  H      -44.476      -7.081    -222.502
  H      -44.384      -6.903    -224.238
  H      -43.383      -8.083    -223.426

 6  7  8  9  10  11  12  13  14  15  26  29  33  34 0
 6-311+G(2d,p)
 ****
 36  38  39  40  41 0
 6-311+G(2d,p)
 ****
 1  2  3  4  5  16  17  18  19  20  21  22  23  24  25 0
 3-21G
 ****
 27  28  30  31  32  35  37  42  43  44  45  46  47 0
 3-21G
 ****
 48  49 0
 3-21G
 ****


