%nproc=1
%NoSave
%Mem=1900MB
#P OB98/GEN NMR

erre ene a

0 1
  C     -135.553     235.025     -93.555
  O     -136.472     234.057     -94.033
  P     -138.033     234.395     -94.216
  C     -138.399     232.406     -95.831
  O     -138.729     232.999     -94.586
  C     -139.144     231.082     -96.005
  O     -138.510     230.078     -95.173
  C     -140.628     231.137     -95.616
  O     -141.334     230.263     -96.504
  C     -140.626     230.580     -94.202
  O     -141.895     230.078     -93.814
  C     -139.525     229.522     -94.314
  N     -138.968     229.153     -93.015
  C     -139.765     228.387     -92.163
  O     -140.901     228.051     -92.487
  N     -139.248     228.006     -90.949
  C     -138.077     228.431     -90.580
  N     -137.587     227.982     -89.395
  C     -137.252     229.334     -91.407
  C     -137.746     229.631     -92.605
  O     -138.324     235.508     -95.163
  O     -138.559     234.646     -92.729
  H     -141.850     229.821     -92.873
  H     -138.415     235.575     -92.422
  H     -136.294     229.683     -91.046
  H     -137.197     230.266     -93.287
  H     -139.908     228.627     -94.820
  H     -140.347     231.370     -93.499
  H     -141.048     232.145     -95.689
  H     -139.036     230.761     -97.048
  H     -138.103     227.234     -88.942
  H     -137.324     232.209     -95.843
  H     -136.590     227.997     -89.202
  H     -138.631     233.102     -96.646
  P     -142.567     230.864     -97.341
  C     -142.738     229.290     -99.397
  O     -143.258     229.657     -98.138
  O     -141.803     231.647     -98.521
  O     -143.472     231.802     -96.614
  H     -142.378     232.363     -98.848
  H     -143.325     228.453     -99.784
  H     -141.695     228.968     -99.303
  H     -142.808     230.124    -100.101
  H     -134.574     234.595     -93.509
  H     -135.848     235.345     -92.578
  H     -135.543     235.865     -94.217

 3  4  5  6  7  8  9  10  11  12  13  23  27  28  29  30  32 0
 6-311+G(2d,p)
 ****
 34  35 0
 6-311+G(2d,p)
 ****
 1  2  14  15  16  17  18  19  20  21  22  24  25  26 0
 3-21G
 ****
 31  33  36  37  38  39  40  41  42  43  44  45  46 0
 3-21G
 ****


