%nproc=1
%NoSave
%Mem=1900MB
#P OB98/GEN NMR

erre ene a

0 1
  C     -975.103     400.669    -353.811
  O     -975.578     401.981    -354.132
  P     -975.695     403.017    -352.898
  C     -977.471     404.299    -354.329
  O     -977.118     403.736    -353.074
  C     -979.006     404.329    -354.473
  O     -979.521     403.000    -354.661
  C     -979.719     404.907    -353.259
  O     -979.714     406.318    -353.302
  C     -981.116     404.286    -353.423
  O     -981.900     405.041    -354.385
  C     -980.789     402.893    -353.971
  N     -982.229     398.217    -352.662
  C     -982.660     399.009    -353.712
  N     -983.549     398.470    -354.561
  N     -982.227     400.251    -353.921
  C     -981.343     400.645    -352.970
  C     -980.857     399.953    -351.887
  C     -981.297     398.600    -351.704
  O     -980.884     397.813    -350.850
  N     -980.000     400.726    -351.142
  C     -979.914     401.869    -351.811
  N     -980.694     401.868    -352.946
  O     -974.631     404.136    -353.281
  O     -975.468     402.409    -351.539
  H     -982.826     404.736    -354.354
  H     -973.792     403.989    -352.781
  H     -982.584     397.276    -352.577
  H     -979.293     402.701    -351.530
  H     -981.536     402.550    -354.697
  H     -981.678     404.307    -352.498
  H     -983.945     397.550    -354.463
  H     -979.263     404.529    -352.323
  H     -983.872     399.048    -355.335
  H     -979.246     404.922    -355.383
  H     -977.055     403.669    -355.122
  H     -977.050     405.317    -354.414
  P     -980.340     407.089    -352.031
  C     -980.606     409.165    -353.592
  O     -981.182     408.323    -352.616
  O     -979.056     407.791    -351.352
  O     -981.051     406.218    -351.057
  H     -979.163     407.781    -350.382
  H     -981.394     409.575    -354.215
  H     -979.884     408.620    -354.209
  H     -980.085     409.987    -353.079
  H     -975.067     400.075    -354.700
  H     -975.764     400.213    -353.104
  H     -974.122     400.738    -353.389

 3  4  5  6  7  8  9  10  11  12  23  26  30  31 0
 6-311+G(2d,p)
 ****
 33  35  36  37  38 0
 6-311+G(2d,p)
 ****
 1  2  13  14  15  16  17  18  19  20  21  22  24  25 0
 3-21G
 ****
 27  28  29  32  34  39  40  41  42  43  44  45  46  47  48  49 0
 3-21G
 ****


