%nproc=1
%NoSave
%Mem=1900MB
#P OB98/GEN NMR

erre ene a

0 1
  C     -476.988    -381.237     237.276
  O     -475.628    -381.456     236.950
  H     -477.602    -382.030     236.846
  H     -477.097    -381.253     238.362
  H     -477.323    -380.266     236.901
  P     -475.173    -381.177     235.437
  C     -472.923    -379.895     235.582
  O     -474.333    -379.811     235.463
  C     -472.448    -379.234     236.877
  O     -473.073    -379.923     238.011
  C     -470.919    -379.276     237.091
  O     -470.509    -378.042     237.680
  C     -470.733    -380.392     238.106
  O     -469.543    -380.246     238.877
  C     -472.021    -380.247     238.936
  N     -474.422    -382.136     242.992
  C     -474.508    -380.944     242.374
  N     -473.855    -380.542     241.265
  C     -473.122    -381.535     240.742
  C     -472.942    -382.805     241.263
  C     -473.634    -383.096     242.461
  N     -473.503    -384.300     243.138
  N     -472.062    -383.527     240.470
  C     -471.702    -382.697     239.518
  N     -472.312    -381.477     239.640
  O     -476.554    -380.755     234.742
  O     -474.523    -382.322     234.737
  H     -469.578    -380.875     239.623
  H     -477.017    -381.551     234.418
  H     -475.161    -380.205     242.841
  H     -470.979    -382.907     238.743
  H     -471.957    -379.441     239.675
  H     -470.700    -381.357     237.595
  H     -470.344    -379.458     236.168
  H     -472.800    -378.207     236.884
  H     -472.453    -379.390     234.730
  H     -473.941    -384.359     244.045
  H     -472.825    -384.967     242.799
  H     -472.618    -380.959     235.564
  P     -470.253    -376.804     236.685
  C     -471.935    -374.932     237.341
  O     -471.635    -376.014     236.482
  O     -470.026    -377.513     235.259
  O     -469.090    -375.945     237.065
  H     -469.400    -376.993     234.720
  H     -472.885    -374.517     237.074
  H     -471.179    -374.181     237.246
  H     -471.969    -375.279     238.353

 6  7  8  9  10  11  12  13  14  15  25  28  32  33  34  35 0
 6-311+G(2d,p)
 ****
 36  39  40 0
 6-311+G(2d,p)
 ****
 1  2  3  4  5  16  17  18  19  20  21  22  23  24 0
 3-21G
 ****
 26  27  29  30  31  37  38  41  42  43  44  45  46  47 0
 3-21G
 ****
 48 0
 3-21G
 ****


