%nproc=1
%NoSave
%Mem=1900MB
#P OB98/GEN NMR

erre ene a

0 1
  C      314.289     254.752     777.917
  O      314.774     254.907     776.585
  P      315.951     253.936     776.076
  C      315.870     251.598     774.996
  O      315.373     252.439     776.039
  C      316.497     250.326     775.583
  O      317.613     250.632     776.444
  C      315.526     249.527     776.445
  O      314.589     248.841     775.636
  C      316.491     248.636     777.217
  O      316.876     247.493     776.439
  C      317.704     249.572     777.420
  N      317.799     250.094     778.777
  C      318.209     249.188     779.765
  O      318.431     248.014     779.471
  N      318.345     249.645     781.055
  C      318.086     250.884     781.336
  N      318.239     251.276     782.629
  C      317.639     251.870     780.328
  C      317.506     251.408     779.092
  O      317.263     254.104     776.756
  O      316.057     254.308     774.510
  H      316.050     247.038     776.188
  H      316.979     254.156     774.222
  H      317.436     252.897     780.613
  H      317.176     252.064     778.287
  H      318.636     249.028     777.213
  H      316.041     248.256     778.139
  H      315.006     250.195     777.134
  H      316.855     249.710     774.745
  H      318.540     250.580     783.298
  H      316.623     252.144     774.416
  H      318.114     252.226     782.937
  H      315.048     251.357     774.314
  P      313.238     249.618     775.242
  C      312.413     250.961     773.180
  O      313.525     250.419     773.888
  O      313.153     250.775     776.353
  O      312.001     248.774     775.241
  H      312.221     250.956     776.561
  H      312.787     251.723     772.488
  H      311.692     251.422     773.857
  H      311.936     250.173     772.600
  H      313.514     255.467     778.100
  H      315.090     254.910     778.609
  H      313.899     253.763     778.042

 3  4  5  6  7  8  9  10  11  12  13  23  27  28  29  30  32 0
 6-311+G(2d,p)
 ****
 34  35 0
 6-311+G(2d,p)
 ****
 1  2  14  15  16  17  18  19  20  21  22  24  25  26 0
 3-21G
 ****
 31  33  36  37  38  39  40  41  42  43  44  45  46 0
 3-21G
 ****


