%nproc=1
%NoSave
%Mem=1900MB
#P OB98/GEN NMR

erre ene a

0 1
  C     -166.229      30.227     -98.467
  O     -166.108      28.847     -98.802
  P     -166.700      27.758     -97.787
  C     -164.705      26.021     -97.748
  O     -166.041      26.334     -98.075
  C     -164.321      24.687     -98.411
  O     -164.164      24.862     -99.835
  C     -163.011      24.108     -97.884
  O     -163.205      23.323     -96.723
  C     -162.518      23.313     -99.077
  O     -163.227      22.065     -99.175
  C     -162.908      24.250    -100.246
  N     -161.961      25.321    -100.626
  C     -161.040      25.101    -101.646
  O     -160.943      24.052    -102.277
  N     -160.214      26.152    -101.947
  C     -160.319      27.424    -101.467
  O     -159.588      28.340    -101.817
  C     -161.403      27.642    -100.504
  C     -162.151      26.602    -100.126
  O     -168.215      27.582     -98.261
  O     -166.606      28.146     -96.344
  H     -162.962      21.523     -98.411
  H     -168.827      27.885     -97.565
  H     -159.492      25.988    -102.633
  H     -161.555      28.647    -100.133
  H     -162.956      26.754     -99.411
  H     -163.109      23.669    -101.155
  H     -161.466      23.057     -98.973
  H     -162.291      24.911     -97.696
  H     -165.136      23.973     -98.246
  H     -164.574      25.951     -96.667
  H     -164.044      26.821     -98.097
  P     -162.141      23.389     -95.528
  C     -161.899      20.836     -95.500
  O     -162.266      21.984     -94.761
  O     -162.197      24.604     -94.666
  O     -160.729      23.248     -96.277
  H     -160.331      24.134     -96.439
  H     -161.877      19.976     -94.823
  H     -160.908      20.965     -95.942
  H     -162.636      20.648     -96.286
  H     -165.788      30.822     -99.240
  H     -165.726      30.415     -97.542
  H     -167.264      30.481     -98.368

 3  4  5  6  7  8  9  10  11  12  13  23  28  29  30  31  32 0
 6-311+G(2d,p)
 ****
 33  34 0
 6-311+G(2d,p)
 ****
 1  2  14  15  16  17  18  19  20  21  22  24  25  26  27 0
 3-21G
 ****
 35  36  37  38  39  40  41  42  43  44  45 0
 3-21G
 ****


