%nproc=1
%NoSave
%Mem=1900MB
#P OB98/GEN NMR

erre ene a

0 1
  C      -80.839      37.487      45.486
  O      -79.902      38.292      44.803
  H      -81.826      37.646      45.043
  H      -80.881      37.773      46.541
  H      -80.583      36.429      45.398
  P      -78.345      38.114      45.133
  C      -76.816      38.824      47.089
  O      -78.026      39.061      46.385
  C      -76.047      40.132      47.307
  O      -75.487      40.560      46.028
  C      -76.914      41.295      47.831
  O      -76.058      42.134      48.619
  C      -77.305      41.970      46.529
  O      -77.886      43.234      46.727
  C      -75.956      41.907      45.800
  N      -76.001      42.202      44.373
  C      -76.068      43.538      43.990
  O      -76.087      44.489      44.770
  N      -76.118      43.767      42.639
  C      -76.093      42.817      41.661
  O      -76.108      43.084      40.467
  C      -76.029      41.424      42.128
  C      -75.981      41.183      43.440
  O      -77.414      38.263      43.976
  O      -78.261      36.646      45.770
  H      -77.923      36.018      45.103
  H      -77.279      43.782      47.271
  H      -76.162      44.729      42.343
  H      -76.019      40.644      41.378
  H      -75.924      40.166      43.814
  H      -75.240      42.581      46.282
  H      -78.058      41.372      46.010
  H      -77.758      40.961      48.440
  H      -75.201      39.938      47.976
  H      -76.207      38.132      46.497
  H      -77.047      38.359      48.053
  P      -76.046      42.127      50.224
  C      -77.690      42.720      52.135
  O      -77.430      42.762      50.736
  O      -74.835      42.763      50.824
  O      -76.154      40.585      50.641
  H      -75.749      40.454      51.519
  H      -78.638      43.174      52.335
  H      -76.922      43.253      52.657
  H      -77.705      41.702      52.465

 6  7  8  9  10  11  12  13  14  15  16  27  31  32  33  34  35 0
 6-311+G(2d,p)
 ****
 36  37 0
 6-311+G(2d,p)
 ****
 1  2  3  4  5  17  18  19  20  21  22  23  24  25 0
 3-21G
 ****
 26  28  29  30  38  39  40  41  42  43  44  45 0
 3-21G
 ****


