%nproc=1
%NoSave
%Mem=1900MB
#P OB98/GEN NMR

erre ene a

0 1
  C     -267.073    -541.258     -24.519
  O     -266.403    -540.350     -23.645
  P     -265.423    -541.011     -22.557
  C     -266.786    -540.545     -20.403
  O     -266.328    -541.517     -21.329
  C     -267.366    -541.210     -19.148
  O     -266.344    -542.000     -18.465
  C     -267.925    -540.210     -18.122
  O     -269.062    -540.833     -17.508
  C     -266.773    -540.094     -17.133
  O     -267.153    -539.515     -15.894
  C     -266.322    -541.549     -17.091
  N     -263.801    -542.835     -12.844
  C     -265.124    -542.725     -13.114
  N     -265.714    -542.374     -14.273
  C     -264.790    -542.121     -15.219
  C     -263.412    -542.187     -15.094
  C     -262.914    -542.569     -13.837
  N     -261.574    -542.655     -13.542
  N     -262.799    -541.834     -16.284
  C     -263.793    -541.489     -17.081
  N     -265.010    -541.730     -16.510
  O     -264.625    -539.758     -21.959
  O     -264.508    -542.046     -23.129
  H     -266.380    -539.460     -15.300
  H     -263.745    -539.685     -22.369
  H     -265.791    -542.953     -12.284
  H     -263.691    -541.072     -18.071
  H     -267.018    -542.184     -16.525
  H     -265.991    -539.459     -17.562
  H     -268.233    -539.255     -18.558
  H     -268.158    -541.900     -19.461
  H     -267.555    -539.917     -20.863
  H     -261.313    -542.929     -12.603
  H     -260.883    -542.449     -14.246
  H     -265.959    -539.877     -20.148
  P     -270.443    -540.022     -17.441
  C     -270.045    -539.429     -14.976
  O     -270.213    -538.923     -16.288
  O     -271.372    -541.088     -16.678
  O     -271.001    -539.555     -18.741
  H     -270.931    -541.423     -15.874
  H     -269.815    -538.589     -14.314
  H     -269.211    -540.140     -14.951
  H     -270.965    -539.906     -14.638
  H     -267.694    -540.709     -25.196
  H     -267.678    -541.927     -23.943
  H     -266.350    -541.819     -25.073

 3  4  5  6  7  8  9  10  11  12  22  25  29  30  31  32 0
 6-311+G(2d,p)
 ****
 33  36  37 0
 6-311+G(2d,p)
 ****
 1  2  13  14  15  16  17  18  19  20  21  23  24  26 0
 3-21G
 ****
 27  28  34  35  38  39  40  41  42  43  44  45  46  47  48 0
 3-21G
 ****


