%nproc=1
%NoSave
%Mem=1900MB
#P OB98/GEN NMR

erre ene a

0 1
  C     -219.611     310.904    -865.736
  O     -219.368     310.473    -867.079
  P     -218.816     311.586    -868.103
  C     -216.435     310.695    -868.664
  O     -217.219     311.638    -867.939
  C     -215.120     311.323    -869.116
  O     -215.347     312.366    -870.082
  C     -214.323     311.988    -867.999
  O     -213.603     311.047    -867.228
  C     -213.374     312.877    -868.797
  O     -212.250     312.102    -869.246
  C     -214.245     313.300    -869.989
  N     -213.393     318.248    -870.721
  C     -212.584     317.162    -870.985
  N     -211.382     317.423    -871.552
  N     -212.914     315.923    -870.722
  C     -214.153     315.807    -870.182
  C     -215.051     316.802    -869.871
  C     -214.652     318.171    -870.140
  O     -215.316     319.170    -869.896
  N     -216.208     316.292    -869.351
  C     -216.030     314.985    -869.370
  N     -214.787     314.642    -869.853
  O     -219.298     312.957    -867.437
  O     -219.327     311.430    -869.496
  H     -212.612     311.327    -869.722
  H     -219.404     313.645    -868.120
  H     -213.085     319.177    -870.938
  H     -216.758     314.254    -869.056
  H     -213.691     313.250    -870.935
  H     -212.975     313.703    -868.209
  H     -211.089     318.347    -871.848
  H     -214.980     312.610    -867.373
  H     -210.787     316.637    -871.786
  H     -214.510     310.540    -869.587
  H     -216.986     310.343    -869.534
  H     -216.252     309.825    -868.023
  P     -213.600     311.243    -865.634
  C     -214.988     309.054    -865.546
  O     -214.834     310.378    -865.092
  O     -214.078     312.764    -865.461
  O     -212.277     310.988    -864.985
  H     -213.705     313.136    -864.639
  H     -214.024     308.527    -865.567
  H     -215.422     309.054    -866.551
  H     -215.659     308.519    -864.868
  H     -219.973     310.080    -865.157
  H     -220.342     311.686    -865.739
  H     -218.700     311.268    -865.308

 3  4  5  6  7  8  9  10  11  12  23  26  30  31  33  0
 6-311+G(2d,p)
 ****
 35  36  37  38 0
 6-311+G(2d,p)
 ****
 1  2  13  14  15  16  17  18  19  20  21  22  24  25  27  28  29 0
 3-21G
 ****
 32  34  39  40  41  42  43  44  45  46  47  48  49 0
 3-21G
 ****


