%nproc=1
%NoSave
%Mem=1900MB
#P OB98/GEN NMR

erre ene a

0 1
  C      350.172    -266.179     -13.936
  O      351.235    -267.047     -14.263
  H      350.325    -265.231     -14.455
  H      350.171    -265.992     -12.859
  H      349.209    -266.595     -14.239
  P      351.054    -268.616     -14.013
  C      352.430    -268.963     -16.167
  O      352.207    -269.382     -14.829
  C      353.422    -269.875     -16.894
  O      354.736    -269.751     -16.312
  C      353.040    -271.352     -16.775
  O      352.090    -271.816     -17.717
  C      354.389    -272.038     -16.982
  O      354.667    -272.218     -18.382
  C      355.374    -271.037     -16.363
  N      358.459    -273.976     -13.544
  C      358.287    -273.964     -14.917
  N      358.983    -274.890     -15.615
  N      357.494    -273.129     -15.531
  C      356.789    -272.327     -14.694
  C      356.869    -272.262     -13.320
  C      357.794    -273.150     -12.652
  O      357.982    -273.210     -11.438
  N      356.005    -271.318     -12.812
  C      355.355    -270.871     -13.872
  N      355.815    -271.435     -15.039
  O      349.736    -268.982     -14.857
  O      350.904    -269.023     -12.578
  H      353.925    -272.703     -18.784
  H      349.301    -269.763     -14.469
  H      359.107    -274.619     -13.127
  H      354.568    -270.128     -13.848
  H      356.272    -270.926     -16.982
  H      354.413    -273.031     -16.524
  H      359.515    -275.623     -15.176
  H      352.695    -271.578     -15.761
  H      358.684    -275.085     -16.574
  H      353.499    -269.562     -17.945
  H      352.828    -267.947     -16.118
  H      351.485    -268.911     -16.713
  P      351.504    -273.300     -17.600
  C      349.189    -272.696     -18.628
  O      350.377    -273.452     -18.735
  O      350.666    -273.248     -16.235
  O      352.528    -274.380     -17.579
  H      351.206    -273.594     -15.498
  H      348.551    -272.915     -19.459
  H      349.429    -271.653     -18.627
  H      348.687    -272.947     -17.717

 6  7  8  9  10  11  12  13  14  15  26  29  33  34 0
 6-311+G(2d,p)
 ****
 36  38  39  40  41 0
 6-311+G(2d,p)
 ****
 1  2  3  4  5  16  17  18  19  20  21  22  23  24  25 0
 3-21G
 ****
 27  28  30  31  32  35  37  42  43  44  45  46  47 0
 3-21G
 ****
 48  49 0
 3-21G
 ****


