%nproc=1
%NoSave
%Mem=1900MB
#P OB98/GEN NMR

erre ene a

0 1
  C      707.131    -361.605    -281.802
  O      706.414    -360.787    -282.702
  H      706.982    -361.224    -280.790
  H      708.197    -361.569    -282.038
  H      706.782    -362.639    -281.841
  P      706.192    -361.301    -284.202
  C      703.747    -361.991    -283.742
  O      705.041    -362.414    -284.155
  C      702.890    -363.194    -283.327
  O      703.598    -363.955    -282.321
  C      701.564    -362.747    -282.697
  O      700.533    -363.708    -282.881
  C      701.908    -362.667    -281.219
  O      700.763    -362.773    -280.372
  C      702.894    -363.827    -281.074
  N      705.017    -365.820    -276.890
  C      703.925    -366.264    -277.613
  N      703.324    -367.392    -277.161
  N      703.456    -365.647    -278.664
  C      704.108    -364.498    -278.960
  C      705.186    -363.945    -278.304
  C      705.721    -364.653    -277.160
  O      706.669    -364.293    -276.474
  N      705.570    -362.767    -278.892
  C      704.731    -362.604    -279.892
  N      703.836    -363.644    -279.988
  O      707.503    -362.174    -284.501
  O      706.000    -360.228    -285.231
  H      700.073    -362.195    -280.747
  H      707.650    -362.244    -285.462
  H      705.358    -366.347    -276.103
  H      704.732    -361.765    -280.577
  H      702.360    -364.767    -280.891
  H      702.363    -361.693    -281.024
  H      703.534    -367.773    -276.254
  H      701.225    -361.784    -283.073
  H      702.364    -367.550    -277.476
  H      702.740    -363.861    -284.186
  H      703.297    -361.473    -284.592
  H      703.826    -361.273    -282.926
  P      699.744    -363.725    -284.276
  C      700.334    -366.228    -284.912
  O      700.350    -364.852    -285.232
  O      700.173    -362.357    -284.976
  O      698.257    -363.839    -284.142
  H      699.408    -361.766    -285.076
  H      700.795    -366.783    -285.702
  H      699.322    -366.554    -284.790
  H      700.873    -366.389    -284.002

 6  7  8  9  10  11  12  13  14  15  26  29  33  34 0
 6-311+G(2d,p)
 ****
 36  38  39  40  41 0
 6-311+G(2d,p)
 ****
 1  2  3  4  5  16  17  18  19  20  21  22  23  24  25 0
 3-21G
 ****
 27  28  30  31  32  35  37  42  43  44  45  46  47 0
 3-21G
 ****
 48  49 0
 3-21G
 ****


