%nproc=1
%NoSave
%Mem=1900MB
#P OB98/GEN NMR

erre ene a

0 1
  C      200.306     675.156    -952.437
  O      201.541     674.438    -952.377
  P      201.673     673.176    -953.357
  C      204.188     673.658    -953.841
  O      203.214     672.723    -953.393
  C      205.592     673.228    -953.415
  O      205.868     673.560    -952.040
  C      205.840     671.731    -953.541
  O      206.121     671.404    -954.891
  C      207.052     671.540    -952.607
  O      208.285     671.839    -953.289
  C      206.757     672.561    -951.505
  N      207.840     670.732    -946.885
  C      208.687     671.041    -947.926
  N      209.984     670.896    -947.677
  N      208.257     671.508    -949.089
  C      206.927     671.616    -949.156
  C      205.971     671.344    -948.198
  C      206.437     670.844    -946.919
  O      205.735     670.552    -945.960
  N      204.697     671.635    -948.640
  C      204.879     671.953    -949.907
  N      206.214     672.029    -950.264
  O      201.450     673.832    -954.821
  O      200.685     672.094    -953.106
  H      208.498     671.093    -953.878
  H      200.593     673.541    -955.191
  H      208.189     670.369    -946.017
  H      204.077     672.191    -950.591
  H      207.680     673.101    -951.196
  H      207.121     670.512    -952.271
  H      210.377     670.551    -946.828
  H      204.976     671.177    -953.164
  H      210.652     671.134    -948.444
  H      206.309     673.777    -954.047
  H      203.972     674.661    -953.459
  H      204.113     673.719    -954.941
  P      205.129     670.407    -955.638
  C      205.623     671.735    -957.823
  O      205.444     670.475    -957.211
  O      203.697     671.161    -955.516
  O      205.038     669.044    -955.049
  H      202.999     670.507    -955.266
  H      206.332     671.623    -958.658
  H      206.060     672.447    -957.117
  H      204.667     672.091    -958.200
  H      200.333     675.971    -951.744
  H      199.499     674.500    -952.184
  H      200.161     675.534    -953.427

 3  4  5  6  7  8  9  10  11  12  23  26  30  31 0
 6-311+G(2d,p)
 ****
 33  35  36  37  38 0
 6-311+G(2d,p)
 ****
 1  2  13  14  15  16  17  18  19  20  21  22  24  25 0
 3-21G
 ****
 27  28  29  32  34  39  40  41  42  43  44  45  46  47  48  49 0
 3-21G
 ****


