%nproc=1
%NoSave
%Mem=1900MB
#P OB98/GEN NMR

erre ene a

0 1
  C      601.465    -285.075     775.052
  O      600.275    -285.504     774.389
  P      599.932    -287.082     774.389
  C      597.964    -287.047     776.055
  O      599.317    -287.451     775.820
  C      597.250    -288.102     776.950
  O      597.327    -289.415     776.369
  C      597.842    -288.228     778.324
  O      597.490    -287.118     779.147
  C      597.285    -289.573     778.779
  O      595.938    -289.427     779.262
  C      597.268    -290.373     777.453
  N      598.347    -291.345     777.355
  C      597.949    -292.658     777.079
  O      596.759    -292.947     776.969
  N      598.932    -293.630     776.946
  C      600.177    -293.304     777.077
  N      601.101    -294.288     776.941
  C      600.632    -291.931     777.393
  C      599.662    -291.013     777.502
  O      601.014    -287.978     773.885
  O      598.624    -287.136     773.433
  H      595.612    -290.327     779.457
  H      598.617    -288.018     772.992
  H      601.681    -291.691     777.482
  H      599.911    -289.976     777.737
  H      596.314    -290.904     777.346
  H      597.877    -290.015     779.574
  H      598.940    -288.295     778.261
  H      596.200    -287.811     777.016
  H      600.759    -295.214     776.734
  H      597.439    -286.945     775.116
  H      602.106    -294.129     776.971
  H      597.968    -286.076     776.551
  P      598.610    -286.550     780.152
  C      598.956    -284.868     778.202
  O      599.502    -285.492     779.348
  O      599.591    -287.817     780.357
  O      598.088    -286.066     781.465
  H      599.949    -287.803     781.262
  H      599.562    -283.975     777.967
  H      597.921    -284.565     778.371
  H      598.987    -285.560     777.343
  H      601.557    -284.012     774.968
  H      602.314    -285.543     774.599
  H      601.416    -285.348     776.085

 3  4  5  6  7  8  9  10  11  12  13  23  27  28  29  30  32 0
 6-311+G(2d,p)
 ****
 34  35 0
 6-311+G(2d,p)
 ****
 1  2  14  15  16  17  18  19  20  21  22  24  25  26 0
 3-21G
 ****
 31  33  36  37  38  39  40  41  42  43  44  45  46 0
 3-21G
 ****


