%nproc=1
%NoSave
%Mem=1900MB
#P OB98/GEN NMR

erre ene a

0 1
  C       56.155    -133.393     -91.943
  O       55.936    -134.730     -91.530
  H       55.296    -133.063     -92.532
  H       57.053    -133.334     -92.564
  H       56.257    -132.742     -91.071
  P       57.082    -135.395     -90.625
  C       55.356    -136.791     -89.293
  O       56.465    -136.808     -90.182
  C       54.609    -138.124     -89.341
  O       53.793    -138.205     -90.523
  C       55.519    -139.348     -89.382
  O       55.984    -139.675     -88.080
  C       54.554    -140.398     -89.913
  O       53.712    -140.872     -88.845
  C       53.716    -139.598     -90.927
  N       52.447    -141.276     -95.613
  C       51.871    -141.466     -94.406
  N       52.288    -141.025     -93.196
  C       53.424    -140.320     -93.312
  C       54.125    -140.044     -94.476
  C       53.587    -140.547     -95.671
  N       54.174    -140.343     -96.904
  N       55.250    -139.292     -94.205
  C       55.199    -139.073     -92.907
  N       54.132    -139.704     -92.315
  O       57.624    -134.537     -89.532
  O       58.146    -135.823     -91.745
  H       54.290    -141.281     -88.173
  H       57.690    -136.153     -92.540
  H       50.956    -142.047     -94.409
  H       55.894    -138.454     -92.351
  H       52.658    -139.889     -90.898
  H       55.072    -141.269     -90.322
  H       56.337    -139.219     -90.095
  H       53.936    -138.163     -88.475
  H       54.673    -135.974     -89.550
  H       53.819    -140.879     -97.683
  H       55.085    -139.910     -96.931
  H       55.745    -136.614     -88.285
  P       57.536    -139.984     -87.823
  C       58.052    -138.967     -85.517
  O       57.712    -140.150     -86.235
  O       58.485    -139.024     -88.456
  O       57.747    -141.473     -88.366
  H       58.614    -141.555     -88.807
  H       58.143    -139.195     -84.476
  H       57.286    -138.233     -85.656
  H       58.983    -138.584     -85.881

 6  7  8  9  10  11  12  13  14  15  25  28  32  33  34  35 0
 6-311+G(2d,p)
 ****
 36  39  40 0
 6-311+G(2d,p)
 ****
 1  2  3  4  5  16  17  18  19  20  21  22  23  24 0
 3-21G
 ****
 26  27  29  30  31  37  38  41  42  43  44  45  46  47 0
 3-21G
 ****
 48 0
 3-21G
 ****


