%nproc=1
%NoSave
%Mem=1900MB
#P OB98/GEN NMR

erre ene a

0 1
  C      349.742     -65.627     262.858
  O      350.864     -66.512     262.907
  P      352.339     -65.894     263.051
  C      352.920     -65.751     260.540
  O      352.673     -65.030     261.738
  C      352.853     -64.825     259.312
  O      353.446     -65.494     258.162
  C      351.413     -64.433     258.938
  O      351.239     -63.025     258.778
  C      351.121     -65.283     257.714
  O      350.094     -64.743     256.894
  C      352.509     -65.440     257.074
  N      352.587     -66.640     256.221
  C      352.035     -66.532     254.953
  O      351.446     -65.530     254.552
  N      352.146     -67.649     254.161
  C      352.660     -68.847     254.538
  O      352.689     -69.838     253.810
  C      353.166     -68.924     255.922
  C      353.108     -67.825     256.684
  O      353.406     -66.856     263.464
  O      352.146     -64.757     264.168
  H      350.443     -63.935     256.455
  H      352.936     -64.756     264.743
  H      351.766     -67.580     253.224
  H      353.559     -69.865     256.262
  H      353.460     -67.855     257.713
  H      352.750     -64.580     256.443
  H      350.775     -66.269     258.048
  H      350.711     -64.695     259.738
  H      353.440     -63.936     259.545
  H      352.172     -66.541     260.434
  H      353.893     -66.258     260.614
  P      351.204     -61.979     259.989
  C      348.803     -62.453     260.860
  O      350.192     -62.533     261.103
  O      350.981     -60.551     259.601
  O      352.645     -62.150     260.671
  H      352.983     -61.273     260.927
  H      348.276     -62.513     261.816
  H      348.498     -63.295     260.233
  H      348.538     -61.509     260.365
  H      348.842     -66.197     262.761
  H      349.841     -64.972     262.018
  H      349.704     -65.050     263.758

 3  4  5  6  7  8  9  10  11  12  13  23  28  29  30  31  32 0
 6-311+G(2d,p)
 ****
 33  34 0
 6-311+G(2d,p)
 ****
 1  2  14  15  16  17  18  19  20  21  22  24  25  26  27 0
 3-21G
 ****
 35  36  37  38  39  40  41  42  43  44  45 0
 3-21G
 ****


