%nproc=1
%NoSave
%Mem=1900MB
#P OB98/GEN NMR

erre ene a

0 1
  C     -945.984     440.471     908.844
  O     -946.176     439.791     907.609
  H     -946.140     441.542     908.690
  H     -944.962     440.330     909.213
  H     -946.700     440.111     909.586
  P     -945.835     438.228     907.544
  C     -946.968     436.263     906.312
  O     -946.716     437.660     906.336
  C     -947.460     435.820     904.931
  O     -948.760     436.400     904.672
  C     -946.546     436.296     903.809
  O     -945.379     435.498     903.729
  C     -947.498     436.173     902.610
  O     -947.587     434.825     902.147
  C     -948.835     436.644     903.235
  N     -949.122     438.055     902.971
  C     -949.566     438.344     901.677
  O     -949.718     437.451     900.846
  N     -949.830     439.667     901.368
  C     -949.679     440.588     902.261
  N     -949.959     441.867     901.876
  C     -949.217     440.325     903.636
  C     -948.950     439.047     903.924
  O     -945.959     437.454     908.811
  O     -944.340     438.186     906.949
  H     -948.002     434.880     901.266
  H     -943.687     438.217     907.677
  H     -949.090     441.129     904.355
  H     -948.618     438.767     904.906
  H     -949.678     436.054     902.859
  H     -947.162     436.807     901.772
  H     -946.297     437.352     903.927
  H     -947.560     434.726     904.935
  H     -950.249     442.025     900.928
  H     -947.732     436.045     907.071
  H     -949.939     442.656     902.511
  H     -946.063     435.695     906.585
  P     -944.308     435.748     902.556
  C     -941.773     435.363     902.297
  O     -942.881     435.346     903.183
  O     -944.366     437.092     901.914
  O     -944.609     434.543     901.545
  H     -945.433     434.694     901.029
  H     -940.888     435.080     902.827
  H     -941.650     436.348     901.898
  H     -941.945     434.674     901.497

 6  7  8  9  10  11  12  13  14  15  16  26  30  31  32  33  35 0
 6-311+G(2d,p)
 ****
 37  38 0
 6-311+G(2d,p)
 ****
 1  2  3  4  5  17  18  19  20  21  22  23  24  25 0
 3-21G
 ****
 27  28  29  34  36  39  40  41  42  43  44  45  46 0
 3-21G
 ****


