%nproc=1
%NoSave
%Mem=1900MB
#P OB98/GEN NMR

erre ene a

0 1
  C     -634.472     131.283     237.072
  O     -635.153     132.465     236.691
  H     -633.849     131.505     237.942
  H     -633.831     130.933     236.261
  H     -635.187     130.500     237.343
  P     -636.138     132.398     235.425
  C     -635.925     134.972     235.412
  O     -635.937     133.779     234.639
  C     -634.844     135.920     234.908
  O     -633.538     135.403     235.226
  C     -634.871     136.137     233.391
  O     -635.858     137.094     233.052
  C     -633.449     136.630     233.166
  O     -633.342     138.007     233.573
  C     -632.649     135.720     234.115
  N     -628.729     133.349     231.953
  C     -628.847     134.664     232.380
  N     -627.781     135.463     232.156
  N     -629.922     135.142     232.947
  C     -630.926     134.245     233.043
  C     -630.931     132.926     232.640
  C     -629.721     132.390     232.056
  O     -629.564     131.227     231.684
  N     -632.163     132.343     232.840
  C     -632.882     133.299     233.393
  N     -632.186     134.476     233.525
  O     -637.572     132.073     235.718
  O     -635.458     131.316     234.458
  H     -633.508     138.026     234.535
  H     -635.815     130.424     234.623
  H     -627.877     133.046     231.501
  H     -633.910     133.191     233.721
  H     -631.774     136.230     234.532
  H     -633.140     136.576     232.118
  H     -627.070     135.223     231.480
  H     -635.004     135.192     232.851
  H     -627.869     136.437     232.410
  H     -634.954     136.872     235.438
  H     -635.735     134.689     236.455
  H     -636.904     135.472     235.358
  P     -636.613     137.030     231.637
  C     -636.141     139.570     231.523
  O     -636.115     138.329     230.835
  O     -638.097     136.874     231.720
  O     -635.889     135.840     230.844
  H     -636.292     134.953     231.013
  H     -635.786     140.344     230.876
  H     -635.513     139.512     232.387
  H     -637.144     139.790     231.825

 6  7  8  9  10  11  12  13  14  15  26  29  33  34 0
 6-311+G(2d,p)
 ****
 36  38  39  40  41 0
 6-311+G(2d,p)
 ****
 1  2  3  4  5  16  17  18  19  20  21  22  23  24  25 0
 3-21G
 ****
 27  28  30  31  32  35  37  42  43  44  45  46  47 0
 3-21G
 ****
 48  49 0
 3-21G
 ****


