%nproc=1
%NoSave
%Mem=1900MB
#P OB98/GEN NMR

erre ene a

0 1
  C     -130.012    -355.057     420.741
  O     -130.222    -353.890     419.938
  P     -130.662    -352.536     420.677
  C     -128.516    -351.212     420.027
  O     -129.343    -351.715     421.070
  C     -127.064    -351.667     420.224
  O     -126.926    -353.098     420.078
  C     -126.094    -351.065     419.225
  O     -125.697    -349.756     419.610
  C     -124.920    -352.025     419.338
  O     -124.138    -351.705     420.508
  C     -125.623    -353.378     419.525
  N     -123.699    -357.110     416.583
  C     -123.278    -356.566     417.752
  N     -123.831    -355.566     418.463
  C     -124.947    -355.118     417.866
  C     -125.502    -355.568     416.675
  C     -124.827    -356.613     416.021
  N     -125.262    -357.154     414.839
  N     -126.645    -354.859     416.369
  C     -126.789    -354.010     417.368
  N     -125.784    -354.122     418.290
  O     -131.201    -353.057     422.094
  O     -131.706    -351.758     419.946
  H     -124.765    -351.409     421.197
  H     -131.940    -352.495     422.394
  H     -122.373    -357.002     418.173
  H     -127.601    -353.302     417.464
  H     -125.094    -354.027     420.232
  H     -124.244    -351.967     418.479
  H     -126.505    -351.090     418.208
  H     -126.764    -351.394     421.247
  H     -128.568    -350.120     419.995
  H     -124.747    -357.924     414.439
  H     -126.116    -356.805     414.423
  H     -128.905    -351.565     419.067
  P     -126.497    -348.526     418.962
  C     -127.500    -347.911     421.276
  O     -127.746    -348.265     419.930
  O     -127.148    -349.172     417.650
  O     -125.650    -347.336     418.641
  H     -127.244    -348.494     416.951
  H     -128.413    -347.482     421.697
  H     -126.698    -347.171     421.351
  H     -127.234    -348.802     421.852
  H     -129.725    -355.875     420.114
  H     -130.917    -355.303     421.256
  H     -129.237    -354.865     421.453

 3  4  5  6  7  8  9  10  11  12  22  25  29  30  31  32 0
 6-311+G(2d,p)
 ****
 33  36  37 0
 6-311+G(2d,p)
 ****
 1  2  13  14  15  16  17  18  19  20  21  23  24  26 0
 3-21G
 ****
 27  28  34  35  38  39  40  41  42  43  44  45  46  47  48 0
 3-21G
 ****


