%nproc=1
%NoSave
%Mem=1900MB
#P OB98/GEN NMR

erre ene a

0 1
  C      501.273     287.403     320.742
  O      502.107     288.537     320.552
  P      502.745     288.761     319.104
  C      505.122     289.371     319.954
  O      503.951     289.807     319.284
  C      506.371     290.017     319.348
  O      506.578     289.467     318.013
  C      506.298     291.546     319.210
  O      507.619     292.041     319.427
  C      505.885     291.714     317.756
  O      506.102     293.007     317.239
  C      506.690     290.584     317.116
  N      507.225     291.434     312.097
  C      507.917     291.889     313.171
  N      507.714     291.621     314.477
  C      506.690     290.761     314.622
  C      505.880     290.234     313.638
  C      506.183     290.596     312.310
  N      505.479     290.135     311.229
  N      504.908     289.409     314.184
  C      505.135     289.456     315.477
  N      506.207     290.243     315.799
  O      501.633     289.615     318.337
  O      503.100     287.499     318.365
  H      505.464     293.209     316.527
  H      501.556     289.334     317.405
  H      508.730     292.579     312.942
  H      504.536     288.944     316.221
  H      507.754     290.842     317.021
  H      504.809     291.511     317.669
  H      505.612     292.014     319.925
  H      507.243     289.732     319.956
  H      505.212     288.286     319.855
  H      505.633     290.613     310.349
  H      504.584     289.678     311.417
  H      505.047     289.603     321.021
  P      507.837     293.253     320.459
  C      507.538     295.275     318.892
  O      508.461     294.424     319.545
  O      509.122     292.753     321.262
  O      506.659     293.601     321.302
  H      509.842     292.482     320.661
  H      508.086     296.084     318.390
  H      506.848     295.723     319.622
  H      506.977     294.717     318.139
  H      500.921     287.384     321.752
  H      501.831     286.512     320.542
  H      500.438     287.458     320.075

 3  4  5  6  7  8  9  10  11  12  22  25  29  30  31  32 0
 6-311+G(2d,p)
 ****
 33  36  37 0
 6-311+G(2d,p)
 ****
 1  2  13  14  15  16  17  18  19  20  21  23  24  26 0
 3-21G
 ****
 27  28  34  35  38  39  40  41  42  43  44  45  46  47  48 0
 3-21G
 ****


