%nproc=1
%NoSave
%Mem=1900MB
#P OB98/GEN NMR

erre ene a

0 1
  C      233.314      18.493     241.117
  O      233.536      17.445     240.202
  P      234.558      17.533     238.983
  C      236.646      16.619     240.262
  O      236.039      17.704     239.570
  C      238.165      16.605     240.040
  O      238.422      16.382     238.630
  C      238.801      17.957     240.402
  O      240.035      17.850     241.099
  C      238.815      18.693     239.069
  O      239.741      19.769     239.024
  C      239.067      17.553     238.088
  N      238.959      20.677     234.085
  C      239.787      20.708     235.188
  N      240.553      21.812     235.325
  N      239.825      19.760     236.088
  C      238.921      18.776     235.877
  C      238.052      18.638     234.820
  C      238.043      19.675     233.817
  O      237.246      19.745     232.882
  N      237.235      17.549     234.973
  C      237.585      17.045     236.139
  N      238.583      17.777     236.742
  O      234.155      18.396     237.832
  O      234.577      16.004     238.463
  H      239.593      20.317     239.816
  H      234.694      16.033     237.492
  H      238.917      21.480     233.466
  H      237.133      16.179     236.607
  H      240.132      17.335     237.993
  H      237.820      19.125     238.921
  H      240.437      22.619     234.730
  H      238.163      18.506     241.103
  H      240.973      21.971     236.236
  H      238.604      15.771     240.597
  H      236.197      15.706     239.857
  H      236.411      16.664     241.328
  P      240.861      18.987     241.855
  C      240.136      18.004     244.111
  O      240.247      19.174     243.323
  O      240.454      20.349     241.125
  O      242.343      18.808     241.824
  H      241.240      20.922     241.040
  H      239.468      18.211     244.951
  H      241.120      17.729     244.499
  H      239.725      17.178     243.523
  H      232.585      18.188     241.839
  H      232.958      19.355     240.593
  H      234.231      18.732     241.615

 3  4  5  6  7  8  9  10  11  12  23  26  30  31 0
 6-311+G(2d,p)
 ****
 33  35  36  37  38 0
 6-311+G(2d,p)
 ****
 1  2  13  14  15  16  17  18  19  20  21  22  24  25 0
 3-21G
 ****
 27  28  29  32  34  39  40  41  42  43  44  45  46  47  48  49 0
 3-21G
 ****


