%nproc=1
%NoSave
%Mem=1900MB
#P OB98/GEN NMR

erre ene a

0 1
  C      143.562      24.831       5.450
  O      142.559      25.823       5.551
  H      143.301      24.154       4.633
  H      143.625      24.258       6.379
  H      144.526      25.297       5.230
  P      142.735      26.904       6.722
  C      140.202      27.374       6.686
  O      141.505      27.918       6.516
  C      139.170      28.215       5.933
  O      139.099      29.523       6.555
  C      139.513      28.420       4.456
  O      138.312      28.380       3.685
  C      140.096      29.821       4.416
  O      139.957      30.433       3.136
  C      139.320      30.513       5.535
  N      139.443      33.939       9.311
  C      138.664      32.859       9.097
  N      138.709      31.986       8.068
  C      139.715      32.293       7.229
  C      140.588      33.363       7.315
  C      140.420      34.220       8.417
  N      141.194      35.338       8.628
  N      141.454      33.366       6.239
  C      141.118      32.308       5.525
  N      140.061      31.639       6.076
  O      144.080      27.543       6.817
  O      142.281      26.068       8.008
  H      140.331      31.337       3.185
  H      141.476      25.548       7.829
  H      137.898      32.672       9.847
  H      141.595      31.996       4.602
  H      138.347      30.893       5.199
  H      141.167      29.780       4.656
  H      140.216      27.676       4.082
  H      138.183      27.753       6.053
  H      139.941      27.342       7.749
  H      141.015      35.891       9.453
  H      141.939      35.553       7.982
  H      140.211      26.351       6.299
  P      137.906      27.002       2.976
  C      137.090      28.182       0.831
  O      136.754      27.301       1.898
  O      137.649      25.849       3.886
  O      139.177      26.711       2.038
  H      139.347      25.749       2.028
  H      136.245      28.299       0.186
  H      137.909      27.774       0.276
  H      137.369      29.135       1.230

 6  7  8  9  10  11  12  13  14  15  25  28  32  33  34  35 0
 6-311+G(2d,p)
 ****
 36  39  40 0
 6-311+G(2d,p)
 ****
 1  2  3  4  5  16  17  18  19  20  21  22  23  24 0
 3-21G
 ****
 26  27  29  30  31  37  38  41  42  43  44  45  46  47 0
 3-21G
 ****
 48 0
 3-21G
 ****


