%nproc=1
%NoSave
%Mem=1900MB
#P OB98/GEN NMR

erre ene a

0 1
  C       48.322    -328.765    -209.147
  O       48.476    -327.360    -209.102
  H       49.273    -329.209    -209.453
  H       47.555    -329.036    -209.870
  H       48.059    -329.152    -208.156
  P       47.184    -326.515    -208.650
  C       46.547    -323.988    -208.691
  O       47.513    -324.984    -208.984
  C       47.232    -322.654    -208.362
  O       47.768    -322.728    -207.005
  C       48.409    -322.310    -209.284
  O       48.513    -320.879    -209.356
  C       49.587    -322.876    -208.507
  O       50.811    -322.385    -209.016
  C       49.186    -322.449    -207.091
  N       53.524    -322.637    -204.389
  C       53.083    -321.769    -205.324
  N       51.909    -321.772    -205.990
  C       51.144    -322.809    -205.596
  C       51.446    -323.769    -204.651
  C       52.712    -323.662    -204.029
  N       53.159    -324.554    -203.083
  N       50.409    -324.678    -204.507
  C       49.492    -324.262    -205.357
  N       49.888    -323.145    -206.044
  O       47.249    -326.580    -207.046
  O       45.877    -327.008    -209.173
  H       51.539    -322.529    -208.377
  H       46.684    -327.306    -206.722
  H       53.769    -320.959    -205.573
  H       48.529    -324.736    -205.530
  H       49.324    -321.373    -206.938
  H       49.624    -323.970    -208.587
  H       48.303    -322.715    -210.295
  H       46.478    -321.852    -208.363
  H       45.950    -324.325    -207.833
  H       45.882    -323.853    -209.557
  H       54.087    -324.413    -202.700
  H       52.574    -325.333    -202.817
  P       48.503    -320.155    -210.796
  C       47.189    -318.126    -211.803
  O       47.753    -318.744    -210.652
  O       47.429    -321.031    -211.599
  O       49.814    -320.134    -211.515
  H       47.630    -320.998    -212.546
  H       46.733    -317.200    -211.523
  H       46.451    -318.773    -212.229
  H       47.959    -317.941    -212.522

 6  7  8  9  10  11  12  13  14  15  25  28  32  33  34  35 0
 6-311+G(2d,p)
 ****
 36  37  40 0
 6-311+G(2d,p)
 ****
 1  2  3  4  5  16  17  18  19  20  21  22  23  24 0
 3-21G
 ****
 26  27  29  30  31  38  39 41  42  43  44  45  46  47  48 0
 3-21G
 ****


