%nproc=1
%NoSave
%Mem=1900MB
#P OB98/GEN NMR

erre ene a

0 1
  C       -8.930    -188.697      34.753
  O       -8.552    -187.958      33.609
  H       -9.285    -189.680      34.434
  H       -9.736    -188.192      35.292
  H       -8.069    -188.835      35.413
  P       -8.143    -186.419      33.782
  C       -6.819    -186.341      31.575
  O       -7.929    -185.834      32.302
  C       -6.413    -185.373      30.462
  O       -7.451    -185.380      29.443
  C       -6.227    -183.928      30.942
  O       -5.132    -183.355      30.226
  C       -7.529    -183.272      30.537
  O       -7.387    -181.873      30.397
  C       -7.888    -184.023      29.249
  N       -9.322    -183.943      28.975
  C       -9.775    -182.771      28.356
  O       -8.982    -181.878      28.061
  N      -11.121    -182.610      28.151
  C      -11.951    -183.512      28.574
  N      -13.275    -183.272      28.370
  C      -11.519    -184.753      29.252
  C      -10.208    -184.901      29.417
  O       -7.026    -186.136      34.731
  O       -9.502    -185.718      34.256
  H       -6.897    -181.674      29.570
  H       -9.556    -185.716      35.231
  H      -12.252    -185.467      29.591
  H       -9.799    -185.775      29.916
  H       -7.341    -183.607      28.394
  H       -8.291    -183.458      31.307
  H       -6.047    -183.855      32.021
  H       -5.499    -185.751      29.988
  H      -13.525    -182.397      27.922
  H       -7.115    -187.301      31.135
  H      -14.013    -183.874      28.689
  H       -5.975    -186.508      32.253
  P       -3.883    -182.717      31.009
  C       -1.886    -183.313      29.522
  O       -2.764    -182.275      29.942
  O       -3.367    -183.546      32.141
  O       -4.445    -181.312      31.550
  H       -3.986    -181.085      32.383
  H       -1.183    -182.922      28.817
  H       -2.453    -184.096      29.063
  H       -1.362    -183.702      30.370

 6  7  8  9  10  11  12  13  14  15  16  26  30  31  32  33  35 0
 6-311+G(2d,p)
 ****
 37  38 0
 6-311+G(2d,p)
 ****
 1  2  3  4  5  17  18  19  20  21  22  23  24  25 0
 3-21G
 ****
 27  28  29  34  36  39  40  41  42  43  44  45  46 0
 3-21G
 ****


