%nproc=1
%NoSave
%Mem=1900MB
#P OB98/GEN NMR

erre ene a

0 1
  C        3.450      42.858      38.532
  O        2.737      44.059      38.728
  H        4.457      43.103      38.187
  H        2.955      42.253      37.768
  H        3.529      42.287      39.460
  P        1.354      44.013      39.533
  C       -1.072      43.508      38.815
  O        0.304      43.215      38.621
  C       -1.794      43.640      37.468
  O       -1.582      44.978      36.950
  C       -1.230      42.665      36.430
  O       -2.200      42.299      35.453
  C       -0.139      43.484      35.759
  O        0.190      43.016      34.452
  C       -0.755      44.881      35.778
  N        1.628      48.496      33.089
  C        0.808      47.476      32.647
  N        0.593      47.415      31.311
  N        0.268      46.586      33.437
  C        0.627      46.727      34.735
  C        1.449      47.681      35.291
  C        2.013      48.682      34.410
  O        2.763      49.592      34.746
  N        1.587      47.497      36.644
  C        0.855      46.433      36.906
  N        0.232      45.944      35.784
  O        0.815      45.519      39.442
  O        1.448      43.547      40.954
  H       -0.633      43.013      33.928
  H        0.185      45.697      40.163
  H        1.994      49.172      32.442
  H        0.731      45.989      37.885
  H       -1.397      45.033      34.902
  H        0.767      43.410      36.366
  H        1.144      47.954      30.661
  H       -0.821      41.763      36.879
  H        0.266      46.516      30.947
  H       -2.874      43.522      37.608
  H       -1.124      44.446      39.372
  H       -1.542      42.739      39.430
  P       -3.464      41.431      35.918
  C       -4.029      38.858      36.165
  O       -3.139      39.876      35.765
  O       -4.552      41.708      34.782
  O       -3.978      41.771      37.282
  H       -5.322      42.177      35.156
  H       -3.592      37.902      35.963
  H       -4.946      38.952      35.622
  H       -4.224      38.947      37.213

 6  7  8  9  10  11  12  13  14  15  26  29  33  34 0
 6-311+G(2d,p)
 ****
 36  38  39  40  41 0
 6-311+G(2d,p)
 ****
 1  2  3  4  5  16  17  18  19  20  21  22  23  24  25 0
 3-21G
 ****
 27  28  30  31  32  35  37  42  43  44  45  46  47 0
 3-21G
 ****
 48  49 0
 3-21G
 ****


