%nproc=1
%NoSave
%Mem=1900MB
#P OB98/GEN NMR

erre ene a

0 1
  C      121.780     259.011    -796.425
  O      123.145     259.273    -796.700
  P      123.648     260.794    -796.657
  C      123.779     260.627    -799.235
  O      124.407     261.077    -798.041
  C      124.374     261.316    -800.454
  O      124.173     262.755    -800.328
  C      125.888     261.085    -800.645
  O      126.152     260.847    -802.051
  C      126.507     262.427    -800.298
  O      127.767     262.623    -800.934
  C      125.397     263.374    -800.761
  N      125.591     268.238    -802.109
  C      125.208     267.151    -802.853
  N      124.897     267.367    -804.153
  N      125.145     265.923    -802.363
  C      125.457     265.860    -801.045
  C      125.836     266.884    -800.192
  C      125.964     268.211    -800.768
  O      126.372     269.212    -800.190
  N      126.053     266.427    -798.925
  C      125.813     265.128    -798.986
  N      125.498     264.726    -800.270
  O      124.812     260.757    -795.571
  O      122.591     261.804    -796.285
  H      128.009     263.552    -800.809
  H      124.639     261.409    -794.859
  H      125.636     269.144    -802.535
  H      125.880     264.438    -798.149
  H      125.380     263.418    -801.865
  H      126.653     262.489    -799.208
  H      124.894     268.281    -804.573
  H      126.303     260.270    -800.047
  H      124.606     266.570    -804.703
  H      123.811     261.003    -801.347
  H      122.709     260.844    -799.189
  H      123.917     259.535    -799.321
  P      127.387     259.837    -802.356
  C      127.621     261.468    -804.380
  O      127.850     260.170    -803.850
  O      126.657     258.405    -802.490
  O      128.453     259.839    -801.304
  H      127.288     257.692    -802.282
  H      127.269     262.162    -803.602
  H      126.861     261.396    -805.160
  H      128.551     261.846    -804.805
  H      121.598     257.959    -796.492
  H      121.168     259.524    -797.137
  H      121.543     259.352    -795.439

 3  4  5  6  7  8  9  10  11  12  23  26  30  31  33  0
 6-311+G(2d,p)
 ****
 35  36  37  38 0
 6-311+G(2d,p)
 ****
 1  2  13  14  15  16  17  18  19  20  21  22  24  25  27  28  29 0
 3-21G
 ****
 32  34  39  40  41  42  43  44  45  46  47  48  49 0
 3-21G
 ****


