%nproc=1
%NoSave
%Mem=1900MB
#P OB98/GEN NMR

erre ene a

0 1
  C      187.523    -465.451    -296.181
  O      186.623    -466.569    -296.098
  P      187.179    -467.990    -295.577
  C      186.102    -469.785    -294.002
  O      185.934    -468.874    -295.084
  C      184.751    -470.392    -293.608
  O      183.985    -469.443    -292.821
  C      183.850    -470.752    -294.781
  O      184.259    -471.952    -295.413
  C      182.495    -470.855    -294.097
  O      182.327    -472.143    -293.482
  C      182.592    -469.745    -293.031
  N      181.828    -468.553    -293.381
  C      180.756    -468.236    -292.555
  O      180.402    -468.930    -291.609
  N      180.067    -467.093    -292.881
  C      180.304    -466.291    -293.972
  O      179.645    -465.294    -294.213
  C      181.407    -466.727    -294.850
  C      182.100    -467.820    -294.523
  O      187.873    -467.583    -294.188
  O      188.154    -468.673    -296.477
  H      182.536    -472.807    -294.169
  H      188.588    -468.210    -293.991
  H      179.311    -466.826    -292.283
  H      181.609    -466.137    -295.736
  H      182.914    -468.150    -295.164
  H      182.219    -470.121    -292.062
  H      181.654    -470.725    -294.795
  H      183.827    -469.930    -295.499
  H      184.947    -471.274    -292.983
  H      186.528    -469.252    -293.146
  H      186.795    -470.574    -294.312
  P      184.723    -471.839    -296.948
  C      186.567    -473.058    -298.352
  O      185.945    -472.861    -297.093
  O      185.396    -470.384    -296.957
  O      183.598    -472.014    -297.913
  H      185.826    -470.169    -296.105
  H      186.557    -472.142    -298.944
  H      186.032    -473.853    -298.895
  H      187.604    -473.374    -298.185
  H      186.994    -464.594    -296.543
  H      188.323    -465.686    -296.852
  H      187.922    -465.241    -295.210

 3  4  5  6  7  8  9  10  11  12  13  23  28  29  30  31  32 0
 6-311+G(2d,p)
 ****
 33  34 0
 6-311+G(2d,p)
 ****
 1  2  14  15  16  17  18  19  20  21  22  24  25  26 0
 3-21G
 ****
 27  35  36  37  38  39  40  41  42  43  44  45 0
 3-21G
 ****


