%nproc=1
%NoSave
%Mem=1900MB
#P OB98/GEN NMR

erre ene a

0 1
  C      -90.934     442.991    -390.631
  O      -90.539     443.273    -391.979
  P      -89.570     442.300    -392.809
  C      -91.289     441.420    -394.505
  O      -90.448     441.095    -393.406
  C      -92.042     440.182    -395.035
  O      -92.542     439.385    -393.922
  C      -93.255     440.496    -395.906
  O      -92.848     440.820    -397.216
  C      -94.044     439.187    -395.785
  O      -93.523     438.192    -396.676
  C      -93.797     438.795    -394.319
  N      -98.757     438.248    -393.225
  C      -97.976     437.685    -394.172
  N      -96.653     437.889    -394.402
  C      -96.148     438.763    -393.508
  C      -96.825     439.418    -392.499
  C      -98.198     439.137    -392.365
  N      -98.992     439.725    -391.411
  N      -95.960     440.258    -391.806
  C      -94.797     440.085    -392.383
  N      -94.855     439.191    -393.421
  O      -88.353     441.857    -392.058
  O      -89.161     443.145    -394.107
  H      -93.868     438.392    -397.560
  H      -88.289     442.851    -394.427
  H      -98.472     436.978    -394.826
  H      -93.881     440.594    -392.087
  H      -93.674     437.703    -394.220
  H      -95.104     439.314    -396.021
  H      -93.834     441.312    -395.456
  H      -91.328     439.556    -395.576
  H      -90.666     441.823    -395.319
  H      -99.971     439.501    -391.398
  H      -98.597     440.430    -390.795
  H      -92.005     442.180    -394.193
  P      -92.523     442.351    -397.600
  C      -90.005     441.911    -397.848
  O      -90.996     442.627    -397.158
  O      -93.511     443.363    -397.110
  O      -92.431     442.344    -399.185
  H      -92.704     443.218    -399.527
  H      -89.938     440.896    -397.462
  H      -89.047     442.412    -397.723
  H      -90.236     441.859    -398.924
  H      -91.577     443.770    -390.278
  H      -90.065     442.936    -390.009
  H      -91.455     442.057    -390.600

 3  4  5  6  7  8  9  10  11  12  22  25  29  30  31  32 0
 6-311+G(2d,p)
 ****
 33  36  37 0
 6-311+G(2d,p)
 ****
 1  2  13  14  15  16  17  18  19  20  21  23  24  26 0
 3-21G
 ****
 27  28  34  35  38  39  40  41  42  43  44  45  46  47  48 0
 3-21G
 ****


