%nproc=1
%NoSave
%Mem=1900MB
#P OB98/GEN NMR

erre ene a

0 1
  C      -72.086     -61.914     104.533
  O      -72.179     -62.873     103.497
  H      -73.083     -61.746     104.948
  H      -71.707     -60.970     104.131
  H      -71.427     -62.272     105.328
  P      -70.794     -63.431     102.917
  C      -70.226     -61.084     101.894
  O      -70.374     -62.482     101.687
  C      -69.130     -60.534     100.986
  O      -68.997     -59.108     101.148
  C      -67.739     -61.062     101.296
  O      -67.566     -62.404     100.899
  C      -66.883     -60.080     100.507
  O      -66.764     -60.466      99.133
  C      -67.687     -58.764     100.639
  N      -67.004     -57.797     101.477
  C      -65.974     -57.082     100.850
  O      -65.718     -57.281      99.662
  N      -65.243     -56.194     101.595
  C      -65.496     -56.051     102.859
  N      -64.712     -55.179     103.547
  C      -66.570     -56.786     103.558
  C      -67.278     -57.636     102.814
  O      -71.243     -64.785     102.196
  O      -69.717     -63.607     103.932
  H      -66.182     -61.255      99.119
  H      -72.009     -64.681     101.608
  H      -66.749     -56.621     104.610
  H      -68.085     -58.216     103.246
  H      -67.845     -58.310      99.652
  H      -65.869     -60.017     100.909
  H      -67.514     -60.930     102.362
  H      -69.413     -60.742      99.945
  H      -63.953     -54.739     103.041
  H      -69.992     -60.873     102.942
  H      -64.765     -55.045     104.546
  H      -71.185     -60.610     101.666
  P      -66.980     -63.501     101.906
  C      -64.673     -63.080     100.838
  O      -65.624     -64.059     101.245
  O      -67.940     -64.563     102.323
  O      -66.418     -62.617     103.118
  H      -65.730     -61.975     102.872
  H      -63.819     -63.567     100.416
  H      -64.371     -62.502     101.686
  H      -65.115     -62.436     100.106

 6  7  8  9  10  11  12  13  14  15  16  26  30  31  32  33  35 0
 6-311+G(2d,p)
 ****
 37  38 0
 6-311+G(2d,p)
 ****
 1  2  3  4  5  17  18  19  20  21  22  23  24  25 0
 3-21G
 ****
 27  28  29  34  36  39  40  41  42  43  44  45  46 0
 3-21G
 ****


