%nproc=1
%NoSave
%Mem=1900MB
#P OB98/GEN NMR

erre ene a

0 1
  C      -86.806     -62.475     139.861
  O      -88.180     -62.661     140.121
  H      -86.605     -61.401     139.805
  H      -86.548     -62.932     138.902
  H      -86.187     -62.906     140.652
  P      -88.671     -64.076     140.684
  C      -90.312     -64.335     138.710
  O      -90.152     -64.339     140.123
  C      -91.526     -65.156     138.271
  O      -91.366     -66.535     138.669
  C      -92.820     -64.674     138.926
  O      -93.458     -63.586     138.282
  C      -93.685     -65.930     138.866
  O      -94.358     -66.027     137.599
  C      -92.660     -67.055     139.018
  N      -95.064     -69.797     142.596
  C      -95.519     -69.400     141.354
  N      -96.796     -69.725     141.054
  N      -94.790     -68.730     140.501
  C      -93.569     -68.393     140.976
  C      -93.013     -68.718     142.193
  C      -93.808     -69.508     143.111
  O      -93.455     -69.880     144.225
  N      -91.745     -68.202     142.321
  C      -91.566     -67.506     141.217
  N      -92.634     -67.613     140.358
  O      -88.937     -63.790     142.240
  O      -87.706     -65.208     140.503
  H      -95.010     -65.307     137.542
  H      -88.835     -64.613     142.751
  H      -95.659     -70.335     143.201
  H      -90.677     -66.932     140.980
  H      -92.869     -67.883     138.329
  H      -94.462     -65.923     139.635
  H      -97.428     -70.136     141.722
  H      -92.646     -64.428     139.979
  H      -97.245     -69.230     140.281
  H      -91.596     -65.139     137.177
  H      -89.400     -64.764     138.289
  H      -90.389     -63.310     138.339
  P      -93.983     -62.342     139.142
  C      -96.457     -63.147     139.112
  O      -95.529     -62.139     138.774
  O      -93.259     -61.098     138.443
  O      -93.682     -62.413     140.599
  H      -92.447     -60.863     138.933
  H      -97.436     -62.851     138.796
  H      -96.453     -63.294     140.172
  H      -96.186     -64.060     138.624

 6  7  8  9  10  11  12  13  14  15  26  29  33  34 0
 6-311+G(2d,p)
 ****
 36  38  39  40  41 0
 6-311+G(2d,p)
 ****
 1  2  3  4  5  16  17  18  19  20  21  22  23  24  25 0
 3-21G
 ****
 27  28  30  31  32  35  37  42  43  44  45  46  47 0
 3-21G
 ****
 48  49 0
 3-21G
 ****


