%nproc=1
%NoSave
%Mem=1900MB
#P OB98/GEN NMR

erre ene a

0 1
  C      178.199    -931.885     -32.344
  O      177.581    -932.137     -31.098
  H      177.427    -931.608     -33.067
  H      178.712    -932.786     -32.701
  H      178.913    -931.060     -32.248
  P      178.543    -932.594     -29.896
  C      176.318    -933.170     -28.689
  O      177.634    -933.591     -29.019
  C      175.424    -934.377     -28.418
  O      175.113    -935.056     -29.647
  C      176.042    -935.412     -27.490
  O      175.853    -935.047     -26.139
  C      175.213    -936.640     -27.849
  O      173.947    -936.596     -27.153
  C      174.982    -936.476     -29.363
  N      175.948    -940.954     -31.692
  C      175.033    -940.608     -30.758
  N      174.862    -939.413     -30.137
  C      175.773    -938.521     -30.592
  C      176.768    -938.734     -31.529
  C      176.829    -940.013     -32.094
  N      177.768    -940.375     -33.045
  N      177.499    -937.581     -31.735
  C      176.926    -936.675     -30.962
  N      175.890    -937.210     -30.221
  O      179.216    -931.492     -29.150
  O      179.530    -933.604     -30.659
  H      174.157    -936.442     -26.205
  H      179.030    -934.146     -31.298
  H      174.339    -941.389     -30.454
  H      177.197    -935.631     -30.926
  H      173.971    -936.765     -29.649
  H      175.698    -937.573     -27.572
  H      177.097    -935.607     -27.733
  H      174.468    -933.999     -28.001
  H      175.903    -932.573     -29.509
  H      177.875    -941.344     -33.257
  H      178.502    -939.704     -33.252
  H      176.389    -932.531     -27.803
  P      177.069    -934.485     -25.252
  C      175.692    -934.606     -23.083
  O      176.829    -935.084     -23.781
  O      177.258    -933.001     -25.326
  O      178.345    -935.297     -25.770
  H      179.162    -934.854     -25.495
  H      175.640    -935.075     -22.123
  H      174.808    -934.836     -23.641
  H      175.769    -933.546     -22.959

 6  7  8  9  10  11  12  13  14  15  25  28  32  33  34  35 0
 6-311+G(2d,p)
 ****
 36  39  40 0
 6-311+G(2d,p)
 ****
 1  2  3  4  5  16  17  18  19  20  21  22  23  24 0
 3-21G
 ****
 26  27  29  30  31  37  38  41  42  43  44  45  46  47 0
 3-21G
 ****
 48 0
 3-21G
 ****


