%nproc=1
%NoSave
%Mem=1900MB
#P OB98/GEN NMR

erre ene a

0 1
  C       -8.196     117.120      25.038
  O       -8.539     116.653      23.730
  P       -8.416     115.068      23.476
  C       -7.834     114.703      20.965
  O       -8.850     114.794      21.955
  C       -8.376     115.108      19.596
  O       -9.425     114.219      19.171
  C       -8.994     116.498      19.556
  O       -8.004     117.510      19.457
  C       -9.812     116.419      18.274
  O       -8.967     116.672      17.137
  C      -10.289     114.958      18.274
  N      -15.137     114.618      16.837
  C      -13.996     114.778      16.075
  N      -14.172     114.827      14.736
  N      -12.795     114.879      16.577
  C      -12.768     114.783      17.928
  C      -13.826     114.626      18.792
  C      -15.156     114.546      18.224
  O      -16.201     114.437      18.856
  N      -13.405     114.561      20.095
  C      -12.092     114.649      20.019
  N      -11.658     114.801      18.724
  O       -9.640     114.475      24.320
  O       -7.110     114.486      23.896
  H       -9.551     116.951      16.404
  H       -9.444     113.560      24.594
  H      -16.038     114.553      16.398
  H      -11.416     114.606      20.863
  H      -10.197     114.499      17.284
  H      -10.618     117.158      18.240
  H      -15.058     114.683      14.279
  H       -9.660     116.657      20.412
  H      -13.343     114.907      14.159
  H       -7.552     115.044      18.873
  H       -7.453     113.681      20.917
  H       -6.995     115.341      21.259
  P       -7.844     118.502      20.709
  C       -7.061     120.837      19.896
  O       -6.691     119.533      20.294
  O       -7.158     117.577      21.819
  O       -9.122     119.101      21.190
  H       -7.405     117.882      22.712
  H       -7.836     121.246      20.549
  H       -7.422     120.818      18.864
  H       -6.181     121.484      19.950
  H       -8.318     118.182      25.081
  H       -7.178     116.869      25.251
  H       -8.836     116.658      25.761

 3  4  5  6  7  8  9  10  11  12  23  26  30  31  33  0
 6-311+G(2d,p)
 ****
 35  36  37  38 0
 6-311+G(2d,p)
 ****
 1  2  13  14  15  16  17  18  19  20  21  22  24  25  27  28  29 0
 3-21G
 ****
 32  34  39  40  41  42  43  44  45  46  47  48  49 0
 3-21G
 ****


