%nproc=1
%NoSave
%Mem=1900MB
#P OB98/GEN NMR

erre ene a

0 1
  C      -17.717    -323.735      18.519
  O      -18.778    -324.188      17.663
  P      -19.590    -323.111      16.785
  C      -18.425    -322.035      14.699
  O      -19.052    -323.174      15.275
  C      -17.331    -322.466      13.720
  O      -16.337    -323.272      14.392
  C      -17.829    -323.334      12.567
  O      -18.487    -322.562      11.575
  C      -16.525    -323.964      12.083
  O      -15.820    -323.071      11.205
  C      -15.753    -324.151      13.403
  N      -15.745    -325.538      13.863
  C      -14.671    -325.918      14.662
  O      -13.739    -325.170      14.945
  N      -14.693    -327.214      15.113
  C      -15.623    -328.162      14.785
  O      -15.574    -329.315      15.203
  C      -16.685    -327.724      13.871
  C      -16.694    -326.458      13.453
  O      -18.966    -321.726      17.298
  O      -21.072    -323.120      16.957
  H      -15.134    -323.603      10.755
  H      -19.627    -321.014      17.199
  H      -13.943    -327.502      15.719
  H      -17.429    -328.453      13.569
  H      -17.475    -326.113      12.774
  H      -14.715    -323.820      13.283
  H      -16.693    -324.895      11.530
  H      -18.490    -324.120      12.953
  H      -16.838    -321.561      13.338
  H      -17.974    -321.435      15.497
  H      -19.183    -321.426      14.192
  P      -19.953    -323.052      11.138
  C      -22.032    -323.713      12.589
  O      -20.845    -322.957      12.470
  O      -19.694    -324.618      10.916
  O      -20.480    -322.336       9.937
  H      -19.030    -324.971      11.536
  H      -21.956    -324.672      12.065
  H      -22.865    -323.137      12.166
  H      -22.228    -323.904      13.643
  H      -17.286    -324.573      19.027
  H      -18.108    -323.045      19.237
  H      -16.967    -323.250      17.931

 3  4  5  6  7  8  9  10  11  12  13  23  28  29  30  31  32 0
 6-311+G(2d,p)
 ****
 33  34 0
 6-311+G(2d,p)
 ****
 1  2  14  15  16  17  18  19  20  21  22  24  25  26 0
 3-21G
 ****
 27  35  36  37  38  39  40  41  42  43  44  45 0
 3-21G
 ****


