%nproc=1
%NoSave
%Mem=1900MB
#P OB98/GEN NMR

erre ene a

0 1
  C     -285.344      32.993     -44.222
  O     -284.420      32.744     -43.188
  P     -283.088      33.589     -42.962
  C     -281.481      32.129     -44.422
  O     -282.132      33.381     -44.236
  C     -280.157      32.304     -45.178
  O     -280.438      32.890     -46.478
  C     -279.215      33.272     -44.444
  O     -277.852      32.862     -44.428
  C     -279.531      34.615     -45.098
  O     -278.504      35.586     -44.929
  C     -279.826      34.195     -46.535
  N     -280.150      38.333     -49.471
  C     -279.030      37.599     -49.123
  N     -277.842      38.135     -49.458
  N     -279.089      36.459     -48.484
  C     -280.340      36.102     -48.122
  C     -281.523      36.747     -48.406
  C     -281.451      37.987     -49.142
  O     -282.403      38.734     -49.367
  N     -282.597      36.128     -47.814
  C     -282.062      35.130     -47.144
  N     -280.696      35.089     -47.272
  O     -282.472      33.527     -41.606
  O     -283.618      35.103     -43.188
  H     -278.854      36.437     -45.245
  H     -283.103      35.677     -42.589
  H     -280.037      39.247     -49.895
  H     -282.614      34.426     -46.529
  H     -278.908      34.112     -47.123
  H     -280.424      35.013     -44.613
  H     -277.761      39.076     -49.820
  H     -279.471      33.330     -43.380
  H     -277.017      37.750     -49.003
  H     -279.703      31.321     -45.344
  H     -282.170      31.511     -45.011
  H     -281.319      31.630     -43.463
  P     -276.783      32.975     -43.247
  C     -276.037      35.319     -43.998
  O     -276.534      34.528     -42.930
  O     -275.399      32.523     -43.900
  O     -277.086      32.143     -42.046
  H     -274.893      31.986     -43.252
  H     -275.661      36.256     -43.596
  H     -276.850      35.530     -44.700
  H     -275.228      34.799     -44.521
  H     -286.149      32.291     -44.158
  H     -284.856      32.890     -45.169
  H     -285.729      33.987     -44.125

 3  4  5  6  7  8  9  10  11  12  23  26  30  31 0
 6-311+G(2d,p)
 ****
 33  35  36  37  38 0
 6-311+G(2d,p)
 ****
 1  2  13  14  15  16  17  18  19  20  21  22  24  25 0
 3-21G
 ****
 27  28  29  32  34  39  40  41  42  43  44  45  46  47  48  49 0
 3-21G
 ****


