%nproc=1
%NoSave
%Mem=1900MB
#P OB98/GEN NMR

erre ene a

0 1
  C      506.887      -8.143     289.915
  O      508.055      -8.141     290.713
  H      506.996      -8.901     289.137
  H      506.758      -7.169     289.438
  H      506.004      -8.382     290.517
  P      508.082      -7.248     292.042
  C      507.612      -9.009     293.870
  O      507.084      -7.945     293.091
  C      508.001      -8.517     295.271
  O      506.778      -8.222     296.020
  C      508.799      -9.542     296.104
  O      509.658      -8.794     296.978
  C      507.683     -10.226     296.871
  O      508.163     -11.033     297.922
  C      506.848      -8.993     297.241
  N      505.507      -9.274     297.741
  C      505.399      -9.984     298.933
  O      506.353     -10.392     299.602
  N      504.120     -10.232     299.364
  C      502.970      -9.840     298.739
  O      501.853     -10.066     299.189
  C      503.150      -9.098     297.485
  C      504.387      -8.845     297.050
  O      507.868      -5.785     291.844
  O      509.528      -7.552     292.666
  H      510.129      -6.811     292.469
  H      507.419     -11.543     298.296
  H      504.022     -10.750     300.228
  H      502.254      -8.779     296.957
  H      504.551      -8.295     296.125
  H      507.384      -8.379     297.974
  H      507.131     -10.890     296.206
  H      509.407     -10.215     295.488
  H      508.548      -7.573     295.174
  H      508.494      -9.410     293.364
  H      506.858      -9.803     293.949
  P      511.246      -9.004     297.055
  C      511.931      -7.048     295.490
  O      511.889      -8.462     295.683
  O      511.663     -10.394     297.398
  O      511.770      -7.957     298.151
  H      512.597      -8.286     298.550
  H      512.380      -6.830     294.544
  H      512.508      -6.598     296.271
  H      510.936      -6.655     295.511

 6  7  8  9  10  11  12  13  14  15  16  27  31  32  33  34  35 0
 6-311+G(2d,p)
 ****
 36  37 0
 6-311+G(2d,p)
 ****
 1  2  3  4  5  17  18  19  20  21  22  23  24  25 0
 3-21G
 ****
 26  28  29  30  38  39  40  41  42  43  44  45 0
 3-21G
 ****


