%nproc=1
%NoSave
%Mem=1900MB
#P OB98/GEN NMR

erre ene a

0 1
  C      331.669    -167.264     769.596
  O      331.097    -167.971     770.694
  P      330.918    -167.183     772.091
  C      328.368    -166.906     771.815
  O      329.625    -166.245     771.965
  C      327.260    -166.113     772.559
  O      327.503    -166.088     773.975
  C      327.166    -164.671     772.138
  O      326.559    -164.545     770.855
  C      326.372    -164.066     773.292
  O      324.967    -164.312     773.125
  C      326.896    -164.884     774.500
  N      327.836    -164.141     775.326
  C      327.265    -163.173     776.164
  O      326.053    -162.957     776.143
  N      328.101    -162.446     777.001
  C      329.374    -162.679     776.993
  N      330.148    -161.944     777.827
  C      330.014    -163.682     776.111
  C      329.177    -164.371     775.321
  O      332.148    -166.539     772.637
  O      330.383    -168.358     773.070
  H      324.678    -163.773     772.366
  H      330.690    -168.143     773.985
  H      331.074    -163.860     776.144
  H      329.571    -165.129     774.644
  H      326.058    -165.204     775.131
  H      326.517    -162.991     773.369
  H      328.168    -164.215     772.110
  H      326.315    -166.626     772.373
  H      329.686    -161.264     778.410
  H      328.433    -167.911     772.205
  H      331.149    -162.091     777.942
  H      328.133    -166.971     770.750
  P      327.518    -164.630     769.564
  C      326.200    -166.661     768.627
  O      327.463    -166.118     769.005
  O      328.994    -164.508     770.206
  O      327.293    -163.560     768.552
  H      329.579    -164.034     769.585
  H      326.381    -167.542     767.990
  H      325.609    -165.934     768.070
  H      325.641    -166.970     769.523
  H      331.724    -167.911     768.745
  H      332.653    -166.934     769.858
  H      331.060    -166.416     769.361

 3  4  5  6  7  8  9  10  11  12  13  23  27  28  29  30  32 0
 6-311+G(2d,p)
 ****
 34  35 0
 6-311+G(2d,p)
 ****
 1  2  14  15  16  17  18  19  20  21  22  24  25  26 0
 3-21G
 ****
 31  33  36  37  38  39  40  41  42  43  44  45  46 0
 3-21G
 ****


