%nproc=1
%NoSave
%Mem=1900MB
#P OB98/GEN NMR

erre ene a

0 1
  C      -30.879    -810.989     935.538
  O      -30.827    -812.300     936.088
  P      -32.078    -812.812     936.941
  C      -30.559    -813.684     938.881
  O      -31.548    -813.980     937.900
  C      -30.443    -814.842     939.863
  O      -31.729    -815.133     940.462
  C      -29.995    -816.161     939.230
  O      -28.589    -816.168     939.012
  C      -30.460    -817.173     940.261
  O      -29.490    -817.310     941.327
  C      -31.770    -816.544     940.773
  N      -32.949    -817.183     940.220
  C      -33.965    -817.463     941.130
  O      -33.874    -817.232     942.343
  N      -35.086    -818.080     940.613
  C      -35.255    -818.471     939.312
  O      -36.258    -819.071     938.922
  C      -34.136    -818.169     938.404
  C      -33.055    -817.555     938.885
  O      -32.986    -813.582     935.868
  O      -32.833    -811.731     937.632
  H      -28.700    -817.732     940.948
  H      -33.930    -813.448     936.077
  H      -35.837    -818.274     941.254
  H      -34.233    -818.469     937.369
  H      -32.213    -817.332     938.233
  H      -31.814    -816.604     941.878
  H      -30.578    -818.166     939.820
  H      -30.526    -816.317     938.284
  H      -29.751    -814.554     940.667
  H      -30.840    -812.765     939.406
  H      -29.605    -813.504     938.385
  P      -28.084    -816.043     937.491
  C      -27.014    -818.414     937.710
  O      -26.848    -817.051     937.377
  O      -27.431    -814.572     937.501
  O      -29.185    -816.216     936.496
  H      -27.037    -814.365     938.380
  H      -28.019    -818.786     937.453
  H      -26.857    -818.534     938.794
  H      -26.266    -819.012     937.184
  H      -29.976    -810.793     934.998
  H      -30.985    -810.275     936.328
  H      -31.715    -810.914     934.874

 3  4  5  6  7  8  9  10  11  12  13  23  28  29  30  31  32 0
 6-311+G(2d,p)
 ****
 33  34 0
 6-311+G(2d,p)
 ****
 1  2  14  15  16  17  18  19  20  21  22  24  25  26 0
 3-21G
 ****
 27  35  36  37  38  39  40  41  42  43  44  45 0
 3-21G
 ****


