%nproc=1
%NoSave
%Mem=1900MB
#P OB98/GEN NMR

erre ene a

0 1
  C      -22.742     712.878    -350.019
  O      -22.322     712.320    -348.788
  H      -22.530     712.164    -350.816
  H      -22.203     713.805    -350.216
  H      -23.820     713.073    -349.995
  P      -22.568     713.209    -347.474
  C      -25.140     713.053    -347.123
  O      -23.848     712.587    -346.740
  C      -26.191     712.005    -346.753
  O      -26.112     710.888    -347.668
  C      -26.009     711.412    -345.364
  O      -26.475     712.272    -344.340
  C      -26.805     710.117    -345.491
  O      -28.204     710.346    -345.277
  C      -26.552     709.712    -346.944
  N      -25.863     704.738    -347.888
  C      -26.959     705.528    -347.937
  N      -27.059     706.849    -347.682
  C      -25.852     707.362    -347.378
  C      -24.645     706.689    -347.293
  C      -24.675     705.309    -347.565
  N      -23.559     704.507    -347.493
  N      -23.636     707.549    -346.917
  C      -24.219     708.726    -346.781
  N      -25.557     708.661    -347.054
  O      -23.104     714.593    -348.072
  O      -21.367     713.404    -346.605
  H      -28.261     710.917    -344.486
  H      -22.375     715.244    -348.092
  H      -27.886     705.019    -348.208
  H      -23.725     709.639    -346.481
  H      -27.462     709.353    -347.440
  H      -26.468     709.382    -344.763
  H      -24.953     711.155    -345.203
  H      -27.186     712.461    -346.856
  H      -25.162     713.219    -348.203
  H      -25.342     713.999    -346.611
  H      -23.666     703.518    -347.639
  H      -22.697     704.903    -347.144
  P      -25.861     712.080    -342.873
  C      -23.464     712.828    -343.583
  O      -24.596     713.055    -342.755
  O      -25.207     710.621    -342.914
  O      -26.851     712.216    -341.762
  H      -25.306     710.185    -342.048
  H      -22.717     713.566    -343.376
  H      -23.755     712.894    -344.611
  H      -23.068     711.854    -343.386

 6  7  8  9  10  11  12  13  14  15  25  28  32  33  34  35 0
 6-311+G(2d,p)
 ****
 36  37  40 0
 6-311+G(2d,p)
 ****
 1  2  3  4  5  16  17  18  19  20  21  22  23  24 0
 3-21G
 ****
 26  27  29  30  31  38  39 41  42  43  44  45  46  47  48 0
 3-21G
 ****


