%nproc=1
%NoSave
%Mem=1900MB
#P OB98/GEN NMR

erre ene a

0 1
  C      864.880     212.952     -64.739
  O      864.968     213.350     -66.096
  H      864.056     213.505     -64.266
  H      865.807     213.181     -64.201
  H      864.663     211.879     -64.665
  P      866.146     212.726     -66.989
  C      867.285     215.040     -66.835
  O      867.453     213.633     -66.741
  C      868.063     215.750     -65.722
  O      869.455     215.360     -65.857
  C      867.977     217.273     -65.794
  O      867.544     217.887     -64.582
  C      869.339     217.682     -66.353
  O      869.753     218.991     -66.010
  C      870.262     216.563     -65.847
  N      871.466     216.381     -66.651
  C      872.680     216.693     -66.059
  O      872.830     217.088     -64.902
  N      873.793     216.533     -66.861
  C      873.793     216.098     -68.148
  O      874.818     215.970     -68.798
  C      872.470     215.800     -68.726
  C      871.375     215.954     -67.959
  O      865.799     212.508     -68.428
  O      866.516     211.349     -66.266
  H      869.238     219.613     -66.538
  H      866.114     210.606     -66.750
  H      874.680     216.758     -66.423
  H      872.436     215.462     -69.749
  H      870.392     215.740     -68.353
  H      870.562     216.766     -64.825
  H      869.290     217.634     -67.455
  H      867.194     217.584     -66.534
  H      867.709     215.369     -64.744
  H      866.217     215.260     -66.746
  H      867.638     215.392     -67.812
  P      866.023     218.203     -64.220
  C      865.901     220.830     -64.342
  O      865.617     219.563     -64.944
  O      865.667     218.076     -62.766
  O      865.199     217.068     -65.029
  H      864.399     216.865     -64.478
  H      865.552     221.614     -64.981
  H      866.957     220.929     -64.200
  H      865.406     220.894     -63.395

 6  7  8  9  10  11  12  13  14  15  16  26  31  32  33  34  35 0
 6-311+G(2d,p)
 ****
 36  37 0
 6-311+G(2d,p)
 ****
 1  2  3  4  5  17  18  19  20  21  22  23  24  25 0
 3-21G
 ****
 27  28  29  30  38  39  40  41  42  43  44  45 0
 3-21G
 ****


