%nproc=1
%NoSave
%Mem=1900MB
#P OB98/GEN NMR

erre ene a

0 1
  C      146.920    -189.798      -2.879
  O      145.889    -190.469      -3.578
  H      147.122    -190.339      -1.950
  H      146.607    -188.778      -2.634
  H      147.833    -189.773      -3.481
  P      145.453    -189.834      -4.987
  C      143.449    -188.584      -3.883
  O      143.887    -189.516      -4.863
  C      141.968    -188.815      -3.555
  O      141.213    -188.816      -4.804
  C      141.682    -190.154      -2.859
  O      140.515    -189.985      -2.037
  C      141.345    -191.051      -4.042
  O      140.737    -192.246      -3.612
  C      140.509    -190.077      -4.864
  N      137.461    -192.575      -8.127
  C      137.325    -192.283      -6.814
  N      138.174    -191.605      -6.016
  C      139.248    -191.187      -6.708
  C      139.522    -191.403      -8.048
  C      138.567    -192.136      -8.774
  N      138.707    -192.441     -10.107
  N      140.731    -190.823      -8.398
  C      141.176    -190.274      -7.287
  N      140.320    -190.474      -6.239
  O      145.511    -191.082      -5.985
  O      146.291    -188.694      -5.464
  H      139.908    -192.056      -3.118
  H      146.372    -191.099      -6.445
  H      136.415    -192.648      -6.343
  H      142.110    -189.730      -7.185
  H      139.512    -189.924      -4.425
  H      142.255    -191.336      -4.581
  H      142.515    -190.512      -2.244
  H      141.597    -187.966      -2.964
  H      143.590    -187.571      -4.276
  H      144.047    -188.703      -2.972
  H      137.986    -192.991     -10.551
  H      139.534    -192.137     -10.601
  P      140.703    -189.582      -0.490
  C      141.193    -191.921       0.583
  O      140.286    -190.841       0.417
  O      139.463    -188.585      -0.257
  O      141.992    -188.921      -0.143
  H      139.692    -187.952       0.451
  H      140.751    -192.664       1.213
  H      142.096    -191.563       1.033
  H      141.416    -192.350      -0.372

 6  7  8  9  10  11  12  13  14  15  25  28  32  33  34  35 0
 6-311+G(2d,p)
 ****
 36  37  40 0
 6-311+G(2d,p)
 ****
 1  2  3  4  5  16  17  18  19  20  21  22  23  24 0
 3-21G
 ****
 26  27  29  30  31  38  39 41  42  43  44  45  46  47  48 0
 3-21G
 ****


