%nproc=1
%NoSave
%Mem=1900MB
#P OB98/GEN NMR

erre ene a

0 1
  C     -200.455     237.900     162.035
  O     -199.295     238.361     161.368
  H     -200.328     236.839     162.263
  H     -201.327     238.021     161.388
  H     -200.601     238.450     162.968
  P     -199.197     239.941     161.098
  C     -199.775     239.937     158.537
  O     -198.800     240.093     159.552
  C     -199.124     239.479     157.231
  O     -198.246     240.531     156.757
  C     -198.292     238.203     157.372
  O     -198.425     237.440     156.170
  C     -196.868     238.724     157.482
  O     -195.907     237.745     157.103
  C     -196.933     239.963     156.572
  N     -195.881     240.930     156.872
  C     -194.846     241.045     155.939
  O     -194.842     240.340     154.927
  N     -193.819     241.919     156.187
  C     -193.791     242.576     157.304
  N     -192.733     243.408     157.503
  C     -194.836     242.455     158.339
  C     -195.846     241.631     158.056
  O     -197.850     240.322     161.876
  O     -200.397     240.716     161.528
  H     -196.015     237.554     156.145
  H     -197.123     239.696     161.721
  H     -194.763     243.015     159.258
  H     -196.660     241.487     158.754
  H     -196.840     239.671     155.518
  H     -196.656     239.023     158.513
  H     -198.589     237.598     158.230
  H     -199.909     239.357     156.475
  H     -192.027     243.444     156.776
  H     -200.303     240.881     158.368
  H     -192.580     243.924     158.355
  H     -200.504     239.195     158.879
  P     -199.436     236.202     156.130
  C     -197.645     234.334     156.138
  O     -198.715     234.951     155.432
  O     -200.811     236.504     155.638
  O     -199.489     235.745     157.672
  H     -200.415     235.518     157.884
  H     -197.259     233.520     155.561
  H     -198.002     233.967     157.078
  H     -196.869     235.051     156.307

 6  7  8  9  10  11  12  13  14  15  16  26  30  31  32  33  35 0
 6-311+G(2d,p)
 ****
 37  38 0
 6-311+G(2d,p)
 ****
 1  2  3  4  5  17  18  19  20  21  22  23  24  25 0
 3-21G
 ****
 27  28  29  34  36  39  40  41  42  43  44  45  46 0
 3-21G
 ****


