%nproc=1
%NoSave
%Mem=1900MB
#P OB98/GEN NMR

erre ene a

0 1
  C      393.947    -186.716     128.570
  O      394.282    -187.184     127.280
  H      393.094    -186.036     128.485
  H      394.787    -186.170     129.009
  H      393.665    -187.549     129.219
  P      395.550    -188.149     127.116
  C      396.956    -186.233     126.109
  O      396.852    -187.212     127.139
  C      398.159    -185.321     126.367
  O      399.356    -186.136     126.285
  C      398.277    -184.189     125.335
  O      398.375    -182.897     125.928
  C      399.421    -184.648     124.440
  O      400.115    -183.603     123.790
  C      400.280    -185.498     125.386
  N      401.106    -186.491     124.702
  C      402.166    -186.018     123.932
  O      402.472    -184.835     123.798
  N      402.905    -186.981     123.290
  C      402.693    -188.324     123.342
  O      403.392    -189.137     122.753
  C      401.547    -188.758     124.156
  C      400.814    -187.838     124.787
  O      395.489    -189.107     125.974
  O      395.638    -188.915     128.519
  H      399.466    -183.098     123.262
  H      395.279    -189.820     128.421
  H      403.682    -186.649     122.740
  H      401.340    -189.819     124.210
  H      399.967    -188.122     125.401
  H      400.941    -184.860     125.973
  H      399.007    -185.294     123.657
  H      397.362    -184.122     124.732
  H      398.096    -184.931     127.390
  H      396.031    -185.652     126.105
  H      397.070    -186.731     125.139
  P      397.185    -181.834     125.994
  C      397.945    -180.577     123.821
  O      396.927    -181.285     124.515
  O      397.286    -180.819     127.083
  O      395.887    -182.747     126.290
  H      395.288    -182.200     126.836
  H      397.586    -180.293     122.854
  H      398.805    -181.204     123.712
  H      398.210    -179.700     124.374

 6  7  8  9  10  11  12  13  14  15  16  26  31  32  33  34  35 0
 6-311+G(2d,p)
 ****
 36  37 0
 6-311+G(2d,p)
 ****
 1  2  3  4  5  17  18  19  20  21  22  23  24  25 0
 3-21G
 ****
 27  28  29  30  38  39  40  41  42  43  44  45 0
 3-21G
 ****


