%nproc=1
%NoSave
%Mem=1900MB
#P OB98/GEN NMR

erre ene a

0 1
  C      155.975      94.629     302.472
  O      154.868      95.049     301.694
  P      154.995      95.198     300.101
  C      156.074      96.871     298.470
  O      155.879      96.512     299.833
  C      157.374      97.653     298.296
  O      158.403      97.040     299.106
  C      157.880      97.684     296.858
  O      158.482      98.957     296.604
  C      158.967      96.626     296.819
  O      159.928      96.899     295.784
  C      159.511      96.701     298.250
  N      162.732      94.437     301.555
  C      162.359      95.726     301.404
  N      161.519      96.263     300.489
  C      161.004      95.300     299.706
  C      161.284      93.941     299.741
  C      162.199      93.514     300.721
  N      162.567      92.192     300.877
  N      160.584      93.272     298.757
  C      159.878      94.203     298.156
  N      160.088      95.445     298.698
  O      153.706      95.158     299.356
  O      155.972      94.010     299.664
  H      159.439      96.917     294.934
  H      155.683      93.626     298.813
  H      162.798      96.427     302.115
  H      159.213      94.039     297.318
  H      160.273      97.488     298.350
  H      158.521      95.645     296.613
  H      157.089      97.491     296.125
  H      157.223      98.675     298.676
  H      155.231      97.498     298.157
  H      163.133      91.964     301.681
  H      162.044      91.488     300.376
  H      156.083      95.964     297.851
  P      158.225      99.576     295.137
  C      158.692      98.692     292.731
  O      158.786      98.471     294.122
  O      158.768     100.962     295.012
  O      156.624      99.473     295.031
  H      156.274      98.764     295.614
  H      159.092      97.816     292.209
  H      159.289      99.565     292.446
  H      157.651      98.839     292.435
  H      155.693      94.592     303.503
  H      156.781      95.321     302.348
  H      156.287      93.657     302.153

 3  4  5  6  7  8  9  10  11  12  22  25  29  30  31  32 0
 6-311+G(2d,p)
 ****
 33  36  37 0
 6-311+G(2d,p)
 ****
 1  2  13  14  15  16  17  18  19  20  21  23  24  26 0
 3-21G
 ****
 27  28  34  35  38  39  40  41  42  43  44  45  46  47  48 0
 3-21G
 ****


