%nproc=1
%NoSave
%Mem=1900MB
#P OB98/GEN NMR

erre ene a

0 1
  C     -284.907      49.368    -684.480
  O     -285.904      48.963    -685.425
  P     -286.302      50.019    -686.577
  C     -288.711      50.735    -685.875
  O     -287.899      49.974    -686.779
  C     -290.175      50.751    -686.325
  O     -290.311      51.433    -687.610
  C     -290.778      49.345    -686.511
  O     -292.192      49.419    -686.234
  C     -290.598      49.100    -687.992
  O     -291.458      48.060    -688.464
  C     -290.892      50.493    -688.556
  N     -292.008      51.602    -693.342
  C     -292.843      51.437    -692.254
  N     -294.162      51.631    -692.453
  N     -292.411      51.116    -691.044
  C     -291.057      50.989    -690.992
  C     -290.144      51.121    -691.997
  C     -290.630      51.450    -693.331
  O     -289.942      51.603    -694.327
  N     -288.864      50.889    -691.562
  C     -289.023      50.615    -690.263
  N     -290.329      50.689    -689.866
  O     -285.744      49.332    -687.907
  O     -285.712      51.387    -686.380
  H     -291.248      47.912    -689.424
  H     -284.963      49.814    -688.223
  H     -292.399      51.849    -694.247
  H     -288.218      50.346    -689.578
  H     -291.971      50.699    -688.625
  H     -289.563      48.798    -688.202
  H     -294.562      51.940    -693.339
  H     -290.333      48.572    -685.889
  H     -294.791      51.557    -691.665
  H     -290.765      51.311    -685.589
  H     -288.342      51.761    -685.820
  H     -288.608      50.310    -684.866
  P     -292.731      48.505    -685.021
  C     -295.180      48.523    -685.897
  O     -294.287      48.857    -684.850
  O     -292.058      49.169    -683.722
  O     -292.401      47.053    -685.138
  H     -291.989      48.512    -683.001
  H     -295.745      47.637    -685.603
  H     -294.650      48.316    -686.838
  H     -295.876      49.347    -686.046
  H     -284.740      48.579    -683.777
  H     -285.241      50.243    -683.962
  H     -283.995      49.585    -684.995

 3  4  5  6  7  8  9  10  11  12  23  26  30  31 0
 6-311+G(2d,p)
 ****
 33  35  36  37  38 0
 6-311+G(2d,p)
 ****
 1  2  13  14  15  16  17  18  19  20  21  22  24  25 0
 3-21G
 ****
 27  28  29  32  34  39  40  41  42  43  44  45  46  47  48  49 0
 3-21G
 ****


