%nproc=1
%NoSave
%Mem=1900MB
#P OB98/GEN NMR

erre ene a

0 1
  C       34.724     -76.997      31.538
  O       33.889     -77.359      32.640
  P       33.479     -76.184      33.653
  C       30.988     -76.029      32.955
  O       31.915     -76.321      33.990
  C       29.850     -77.057      32.902
  O       30.368     -78.410      32.993
  C       28.823     -76.888      34.024
  O       27.548     -77.261      33.497
  C       29.252     -77.929      35.040
  O       28.182     -78.265      35.919
  C       29.719     -79.059      34.107
  N       30.603     -80.019      34.764
  C       30.005     -81.137      35.349
  O       28.777     -81.248      35.362
  N       30.802     -82.080      35.945
  C       32.085     -81.897      35.999
  N       32.821     -82.866      36.606
  C       32.755     -80.703      35.447
  C       31.961     -79.819      34.847
  O       33.559     -74.868      32.746
  O       34.377     -76.081      34.843
  H       28.477     -79.009      36.489
  H       34.083     -74.181      33.199
  H       33.824     -80.583      35.534
  H       32.358     -78.915      34.410
  H       28.858     -79.614      33.712
  H       30.091     -77.553      35.638
  H       28.777     -75.871      34.425
  H       29.352     -76.963      31.930
  H       32.327     -83.674      36.966
  H       31.501     -76.016      31.991
  H       33.824     -82.826      36.706
  H       30.596     -75.018      33.104
  P       26.376     -76.168      33.498
  C       26.476     -74.485      31.562
  O       26.154     -75.805      31.952
  O       27.155     -74.864      34.020
  O       25.155     -76.433      34.311
  H       26.525     -74.130      34.134
  H       26.397     -74.412      30.474
  H       27.499     -74.237      31.858
  H       25.773     -73.778      32.011
  H       34.924     -77.863      30.942
  H       35.646     -76.597      31.905
  H       34.228     -76.260      30.941

 3  4  5  6  7  8  9  10  11  12  13  21  23  27  28  29  30  32 0
 6-311+G(2d,p)
 ****
 34  35 0
 6-311+G(2d,p)
 ****
 1  2  14  15  16  17  18  19  20  22  24  25  26 0
 3-21G
 ****
 31  33  36  37  38  39  40  41  42  43  44  45  46 0
 3-21G
 ****


