%nproc=1
%NoSave
%Mem=1900MB
#P OB98/GEN NMR

erre ene a

0 1
  C       17.024    -123.633      71.635
  O       16.678    -124.386      72.783
  P       17.724    -125.426      73.403
  C       18.170    -127.976      73.136
  O       17.409    -126.854      72.746
  C       17.562    -129.275      72.589
  O       17.771    -129.293      71.156
  C       18.199    -130.554      73.120
  O       17.305    -131.642      72.879
  C       19.414    -130.688      72.230
  O       19.927    -132.017      72.213
  C       18.892    -130.161      70.869
  N       19.938    -129.422      70.138
  C       20.769    -130.166      69.307
  O       20.615    -131.370      69.109
  N       21.838    -129.497      68.776
  C       22.163    -128.198      69.037
  O       23.264    -127.711      68.811
  C       21.126    -127.409      69.719
  C       20.086    -128.053      70.255
  O       17.218    -125.580      74.913
  O       19.150    -125.000      73.336
  H       20.137    -132.253      73.146
  H       17.728    -124.993      75.500
  H       22.519    -130.069      68.292
  H       21.276    -126.343      69.814
  H       19.331    -127.504      70.810
  H       18.547    -130.981      70.228
  H       20.209    -130.032      72.606
  H       18.472    -130.515      74.179
  H       16.481    -129.276      72.774
  H       18.230    -128.009      74.228
  H       19.198    -127.884      72.772
  P       17.549    -133.007      73.684
  C       19.499    -134.660      73.910
  O       18.951    -133.589      73.169
  O       16.413    -133.974      73.689
  O       17.901    -132.495      75.162
  H       17.777    -133.221      75.800
  H       20.100    -135.281      73.240
  H       18.718    -135.279      74.360
  H       20.143    -134.261      74.697
  H       16.207    -122.996      71.367
  H       17.239    -124.297      70.824
  H       17.887    -123.037      71.846

 3  4  5  6  7  8  9  10  11  12  13  23  28  29  30  31  32 0
 6-311+G(2d,p)
 ****
 33  34 0
 6-311+G(2d,p)
 ****
 1  2  14  15  16  17  18  19  20  21  22  24  25  26  27 0
 3-21G
 ****
 35  36  37  38  39  40  41  42  43  44  45 0
 3-21G
 ****


