%nproc=1
%NoSave
%Mem=1900MB
#P OB98/GEN NMR

erre ene a

0 1
  C     -193.902     -79.319     103.101
  O     -193.696     -79.397     101.700
  H     -192.965     -79.572     103.602
  H     -194.666     -80.037     103.407
  H     -194.196     -78.308     103.391
  P     -194.874     -78.924     100.718
  C     -193.536     -77.717      98.866
  O     -194.264     -78.892      99.233
  C     -192.743     -77.992      97.591
  O     -191.764     -79.033      97.815
  C     -193.592     -78.473      96.416
  O     -194.311     -77.397      95.832
  C     -192.526     -79.088      95.516
  O     -191.848     -78.074      94.754
  C     -191.583     -79.738      96.554
  N     -191.804     -81.166      96.721
  C     -191.054     -82.015      95.886
  O     -190.268     -81.594      95.030
  N     -191.266     -83.351      96.053
  C     -192.210     -83.918      96.868
  O     -192.429     -85.127      96.912
  C     -192.984     -82.993      97.695
  C     -192.748     -81.671      97.590
  O     -195.603     -77.693     101.126
  O     -195.851     -80.196     100.672
  H     -191.200     -78.544      94.194
  H     -196.648     -80.015     101.207
  H     -190.752     -83.974      95.451
  H     -193.729     -83.404      98.366
  H     -193.316     -80.978      98.188
  H     -190.534     -79.578      96.264
  H     -192.948     -79.799      94.817
  H     -194.277     -79.257      96.757
  H     -192.199     -77.066      97.319
  H     -192.839     -77.466      99.683
  H     -194.238     -76.896      98.719
  P     -195.741     -77.670      95.150
  C     -197.157     -75.629      95.841
  O     -196.390     -76.247      94.801
  O     -196.631     -78.616      95.894
  O     -195.357     -78.253      93.704
  H     -195.723     -79.158      93.617
  H     -197.537     -74.691      95.494
  H     -196.534     -75.467      96.696
  H     -197.973     -76.267      96.110

 6  7  8  9  10  11  12  13  14  15  16  26  31  32  33  34  35 0
 6-311+G(2d,p)
 ****
 36  37 0
 6-311+G(2d,p)
 ****
 1  2  3  4  5  17  18  19  20  21  22  23  24  25 0
 3-21G
 ****
 27  28  29  30  38  39  40  41  42  43  44  45 0
 3-21G
 ****


