%nproc=1
%NoSave
%Mem=1900MB
#P OB98/GEN NMR

erre ene a

0 1
  C        2.582     248.226    -113.005
  O        3.336     248.445    -114.182
  H        3.239     247.799    -112.243
  H        1.772     247.520    -113.209
  H        2.172     249.170    -112.633
  P        2.602     249.235    -115.373
  C        1.356     248.452    -117.548
  O        2.129     248.109    -116.412
  C        1.606     247.464    -118.689
  O        2.967     247.635    -119.160
  C        1.432     246.000    -118.283
  O        0.881     245.286    -119.393
  C        2.857     245.531    -118.043
  O        2.986     244.118    -118.167
  C        3.623     246.351    -119.093
  N        5.042     246.487    -118.767
  C        5.884     245.453    -119.186
  O        5.422     244.481    -119.784
  N        7.219     245.520    -118.881
  C        7.667     246.503    -118.164
  N        8.995     246.499    -117.874
  C        6.807     247.593    -117.662
  C        5.521     247.528    -118.006
  O        3.838     249.937    -116.109
  O        1.536     250.176    -114.923
  H        2.749     243.862    -119.086
  H        4.600     249.347    -116.235
  H        7.224     248.385    -117.058
  H        4.821     248.291    -117.689
  H        3.541     245.884    -120.083
  H        3.180     245.810    -117.034
  H        0.790     245.876    -117.409
  H        0.947     247.724    -119.525
  H        9.544     245.721    -118.217
  H        1.602     249.464    -117.883
  H        9.441     247.181    -117.278
  H        0.301     248.437    -117.256
  P       -0.707     245.128    -119.519
  C       -2.619     243.983    -118.206
  O       -1.218     244.048    -118.451
  O       -1.232     244.951    -120.903
  O       -1.248     246.507    -118.893
  H       -1.995     246.811    -119.443
  H       -2.819     243.225    -117.478
  H       -3.130     243.746    -119.116
  H       -2.961     244.928    -117.840

 6  7  8  9  10  11  12  13  14  15  16  26  30  31  32  33  35 0
 6-311+G(2d,p)
 ****
 37  38 0
 6-311+G(2d,p)
 ****
 1  2  3  4  5  17  18  19  20  21  22  23  24  25 0
 3-21G
 ****
 27  28  29  34  36  39  40  41  42  43  44  45  46 0
 3-21G
 ****


