%nproc=1
%NoSave
%Mem=1900MB
#P OB98/GEN NMR

erre ene a

0 1
  C     -137.737     176.403     169.426
  O     -137.440     176.654     168.066
  H     -138.732     175.954     169.491
  H     -137.734     177.339     169.991
  H     -137.007     175.708     169.851
  P     -136.022     177.340     167.760
  C     -137.511     179.399     167.243
  O     -136.281     178.925     167.770
  C     -137.267     180.567     166.292
  O     -136.744     181.708     167.008
  C     -136.283     180.269     165.167
  O     -136.919     179.598     164.093
  C     -135.824     181.671     164.796
  O     -136.776     182.328     163.934
  C     -135.759     182.363     166.165
  N     -131.602     185.018     167.238
  C     -132.778     185.410     166.633
  N     -132.833     186.690     166.202
  N     -133.803     184.621     166.456
  C     -133.591     183.362     166.907
  C     -132.477     182.856     167.538
  C     -131.362     183.752     167.755
  O     -130.318     183.484     168.343
  N     -132.648     181.536     167.863
  C     -133.845     181.234     167.397
  N     -134.450     182.304     166.793
  O     -135.779     177.020     166.209
  O     -134.887     176.867     168.602
  H     -136.541     183.269     163.858
  H     -134.820     176.944     166.045
  H     -130.855     185.678     167.361
  H     -134.313     180.262     167.471
  H     -136.035     183.421     166.106
  H     -134.875     181.656     164.257
  H     -131.995     187.222     166.011
  H     -135.427     179.694     165.543
  H     -133.684     186.979     165.738
  H     -138.241     180.863     165.880
  H     -138.147     179.735     168.068
  H     -138.015     178.583     166.713
  P     -135.998     178.724     163.109
  C     -135.825     180.511     161.226
  O     -135.152     179.770     162.236
  O     -137.044     178.128     162.056
  O     -135.206     177.656     163.784
  H     -136.646     177.374     161.581
  H     -135.129     181.160     160.737
  H     -136.605     181.094     161.671
  H     -136.248     179.837     160.511

 6  7  8  9  10  11  12  13  14  15  26  29  33  34 0
 6-311+G(2d,p)
 ****
 36  38  39  40  41 0
 6-311+G(2d,p)
 ****
 1  2  3  4  5  16  17  18  19  20  21  22  23  24  25 0
 3-21G
 ****
 27  28  30  31  32  35  37  42  43  44  45  46  47 0
 3-21G
 ****
 48  49 0
 3-21G
 ****


