%nproc=1
%NoSave
%Mem=1900MB
#P OB98/GEN NMR

erre ene a

0 1
  C     -238.840     438.628    -486.676
  O     -238.419     437.368    -486.198
  H     -238.043     439.095    -487.260
  H     -239.713     438.489    -487.320
  H     -239.116     439.276    -485.840
  P     -237.117     437.347    -485.261
  C     -238.209     435.286    -484.126
  O     -237.016     435.869    -484.632
  C     -238.723     434.226    -485.099
  O     -239.156     434.891    -486.310
  C     -237.686     433.157    -485.485
  O     -238.174     431.852    -485.152
  C     -237.580     433.261    -486.995
  O     -237.486     431.991    -487.641
  C     -238.853     434.000    -487.391
  N     -238.408     433.510    -492.441
  C     -238.946     432.694    -491.513
  N     -239.130     432.928    -490.196
  C     -238.716     434.166    -489.871
  C     -238.168     435.116    -490.715
  C     -237.999     434.741    -492.058
  N     -237.397     435.551    -492.997
  N     -237.852     436.267    -490.016
  C     -238.166     436.000    -488.765
  N     -238.672     434.733    -488.628
  O     -237.548     438.256    -484.013
  O     -235.867     437.846    -485.902
  H     -237.582     432.156    -488.599
  H     -236.844     438.903    -483.821
  H     -239.266     431.718    -491.866
  H     -238.008     436.657    -487.920
  H     -239.703     433.318    -487.517
  H     -236.687     433.843    -487.250
  H     -236.712     433.320    -485.011
  H     -239.608     433.752    -484.655
  H     -238.973     436.060    -484.008
  H     -237.214     435.157    -493.903
  H     -236.994     436.426    -492.690
  H     -238.004     434.846    -483.144
  P     -237.676     431.227    -483.756
  C     -239.492     429.367    -483.657
  O     -238.109     429.683    -483.741
  O     -238.668     431.898    -482.690
  O     -236.245     431.507    -483.443
  H     -238.234     431.946    -481.818
  H     -239.616     428.304    -483.658
  H     -240.005     429.786    -484.497
  H     -239.896     429.773    -482.753

 6  7  8  9  10  11  12  13  14  15  25  28  32  33  34  35 0
 6-311+G(2d,p)
 ****
 36  39  40 0
 6-311+G(2d,p)
 ****
 1  2  3  4  5  16  17  18  19  20  21  22  23  24 0
 3-21G
 ****
 26  27  29  30  31  37  38  41  42  43  44  45  46  47  48 0
 3-21G
 ****


