%nproc=1
%NoSave
%Mem=1900MB
#P OB98/GEN NMR

erre ene a

0 1
  C      118.306     160.399      26.709
  O      116.897     160.310      26.489
  P      116.334     159.318      25.365
  C      114.593     160.750      24.097
  O      114.813     159.701      25.032
  C      113.180     161.315      24.267
  O      113.096     162.196      25.413
  C      112.738     162.172      23.085
  O      112.494     161.501      21.868
  C      111.594     162.975      23.681
  O      110.371     162.238      23.668
  C      112.083     163.189      25.131
  N      112.588     164.543      25.363
  C      111.773     165.381      26.118
  O      110.669     165.045      26.539
  N      112.256     166.642      26.341
  C      113.433     167.144      25.865
  O      113.807     168.291      26.079
  C      114.241     166.221      25.054
  C      113.792     164.983      24.844
  O      116.589     157.867      25.596
  O      117.106     159.813      24.043
  H      110.398     161.621      24.426
  H      117.368     159.019      23.537
  H      111.682     167.259      26.892
  H      115.178     166.588      24.656
  H      114.371     164.286      24.249
  H      111.267     163.013      25.843
  H      111.416     163.899      23.120
  H      113.545     162.887      22.871
  H      112.491     160.486      24.439
  H      114.732     160.375      23.081
  H      115.352     161.526      24.246
  P      112.832     162.131      20.433
  C      111.035     160.990      18.953
  O      112.398     161.080      19.303
  O      114.157     162.800      20.275
  O      111.681     163.246      20.299
  H      112.041     164.000      19.795
  H      110.923     160.216      18.186
  H      110.682     161.940      18.546
  H      110.434     160.708      19.823
  H      118.501     161.104      27.490
  H      118.788     160.721      25.809
  H      118.684     159.439      26.992

 3  4  5  6  7  8  9  10  11  12  13  23  28  29  30  31  32 0
 6-311+G(2d,p)
 ****
 33  34 0
 6-311+G(2d,p)
 ****
 1  2  14  15  16  17  18  19  20  21  22  24  25  26  27 0
 3-21G
 ****
 35  36  37  38  39  40  41  42  43  44  45 0
 3-21G
 ****


