%nproc=1
%NoSave
%Mem=1900MB
#P OB98/GEN NMR

erre ene a

0 1
  C     -105.373     267.640     100.251
  O     -105.523     266.530      99.386
  H     -105.240     267.271     101.273
  H     -106.257     268.280     100.222
  H     -104.486     268.215      99.972
  P     -106.006     266.806      97.881
  C     -103.672     266.330      96.895
  O     -104.693     267.304      97.095
  C     -103.495     266.014      95.409
  O     -102.410     265.081      95.214
  C     -104.702     265.352      94.764
  O     -105.845     266.168      94.675
  C     -104.097     264.770      93.495
  O     -103.995     265.736      92.450
  C     -102.683     264.367      93.985
  N     -102.547     262.925      94.158
  C     -102.314     262.192      92.999
  O     -102.247     262.697      91.877
  N     -102.194     260.841      93.167
  C     -102.330     260.163      94.340
  O     -102.229     258.943      94.420
  C     -102.612     260.987      95.527
  C     -102.704     262.312      95.381
  O     -107.184     267.726      97.737
  O     -106.256     265.344      97.283
  H     -103.311     266.378      92.723
  H     -106.785     265.384      96.451
  H     -102.008     260.291      92.339
  H     -102.736     260.483      96.474
  H     -102.911     262.944      96.246
  H     -101.924     264.695      93.262
  H     -104.681     263.934      93.108
  H     -104.995     264.495      95.386
  H     -103.228     266.945      94.893
  H     -103.973     265.419      97.424
  H     -102.731     266.695      97.320
  P     -107.133     265.798      93.809
  C     -108.665     264.417      95.414
  O     -107.726     264.408      94.347
  O     -107.029     265.991      92.333
  O     -108.215     266.861      94.368
  H     -108.796     267.102      93.617
  H     -108.953     263.413      95.644
  H     -109.528     264.979      95.124
  H     -108.220     264.867      96.277

 6  7  8  9  10  11  12  13  14  15  16  26  31  32  33  34  35 0
 6-311+G(2d,p)
 ****
 36  37 0
 6-311+G(2d,p)
 ****
 1  2  3  4  5  17  18  19  20  21  22  23  24  25 0
 3-21G
 ****
 27  28  29  30  38  39  40  41  42  43  44  45 0
 3-21G
 ****


