%nproc=1
%NoSave
%Mem=1900MB
#P OB98/GEN NMR

erre ene a

0 1
  C      229.515      -8.885       8.240
  O      230.139      -7.926       7.402
  P      231.549      -7.327       7.886
  C      232.515      -4.916       7.929
  O      231.354      -5.737       7.987
  C      232.199      -3.550       7.312
  O      232.047      -3.706       5.881
  C      230.927      -2.898       7.857
  O      231.158      -1.491       7.938
  C      229.901      -3.167       6.773
  O      228.843      -2.213       6.800
  C      230.779      -3.127       5.512
  N      230.171      -3.842       4.394
  C      229.016      -3.278       3.839
  O      228.518      -2.272       4.344
  N      228.431      -3.897       2.762
  C      228.893      -5.035       2.346
  N      228.281      -5.604       1.275
  C      230.032      -5.723       2.983
  C      230.629      -5.066       3.976
  O      232.473      -7.504       6.594
  O      232.125      -7.990       9.093
  H      228.184      -2.468       6.116
  H      233.403      -7.664       6.852
  H      230.355      -6.689       2.621
  H      231.486      -5.484       4.488
  H      230.964      -2.090       5.205
  H      229.469      -4.167       6.909
  H      230.640      -3.283       8.840
  H      233.063      -2.895       7.477
  H      227.492      -5.120       0.864
  H      233.266      -5.406       7.304
  H      228.570      -6.490       0.882
  H      232.929      -4.799       8.934
  P      230.618      -0.722       9.238
  C      228.549       0.719       9.720
  O      229.160      -0.195       8.832
  O      231.474       0.634       9.183
  O      230.752      -1.393      10.564
  H      231.281       1.175       9.971
  H      227.633       1.097       9.259
  H      229.217       1.561       9.921
  H      228.290       0.213      10.654
  H      228.591      -9.196       7.799
  H      229.324      -8.450       9.199
  H      230.159      -9.732       8.354

 3  4  5  6  7  8  9  10  11  12  13  21  23  27  28  29  30  32 0
 6-311+G(2d,p)
 ****
 34  35 0
 6-311+G(2d,p)
 ****
 1  2  14  15  16  17  18  19  20  22  24  25  26 0
 3-21G
 ****
 31  33  36  37  38  39  40  41  42  43  44  45  46 0
 3-21G
 ****


