%nproc=1
%NoSave
%Mem=1900MB
#P OB98/GEN NMR

erre ene a

0 1
  C      216.944     -68.454    -221.340
  O      216.516     -69.774    -221.075
  H      217.294     -68.381    -222.373
  H      216.098     -67.774    -221.209
  H      217.742     -68.158    -220.654
  P      217.651     -70.894    -220.913
  C      217.315     -71.517    -223.410
  O      218.233     -71.166    -222.387
  C      217.987     -72.424    -224.443
  O      218.525     -73.589    -223.752
  C      217.044     -72.927    -225.548
  O      217.764     -72.944    -226.784
  C      216.750     -74.357    -225.128
  O      216.391     -75.192    -226.226
  C      218.067     -74.749    -224.464
  N      216.897     -79.695    -224.304
  C      217.282     -78.893    -225.318
  N      217.628     -77.592    -225.263
  C      217.616     -77.147    -223.996
  C      217.252     -77.849    -222.859
  C      216.860     -79.187    -223.050
  N      216.400     -79.993    -222.035
  N      217.311     -77.029    -221.747
  C      217.680     -75.852    -222.211
  N      217.873     -75.874    -223.564
  O      216.792     -72.212    -220.602
  O      218.669     -70.631    -219.856
  H      216.113     -76.065    -225.881
  H      216.633     -72.280    -219.642
  H      217.304     -79.351    -226.303
  H      217.789     -74.951    -221.621
  H      218.837     -75.040    -225.189
  H      215.927     -74.364    -224.403
  H      216.132     -72.331    -225.658
  H      218.834     -71.888    -224.876
  H      216.972     -70.605    -223.912
  H      216.039     -80.900    -222.284
  H      216.263     -79.594    -221.118
  H      216.453     -72.022    -222.966
  P      217.470     -71.761    -227.825
  C      216.288     -73.272    -229.589
  O      216.190     -72.162    -228.702
  O      218.681     -71.879    -228.866
  O      217.408     -70.404    -227.199
  H      218.924     -70.997    -229.205
  H      215.356     -73.407    -230.096
  H      216.521     -74.155    -229.031
  H      217.061     -73.088    -230.306

 6  7  8  9  10  11  12  13  14  15  25  28  32  33  34  35 0
 6-311+G(2d,p)
 ****
 36  39  40 0
 6-311+G(2d,p)
 ****
 1  2  3  4  5  16  17  18  19  20  21  22  23  24 0
 3-21G
 ****
 26  27  29  30  31  37  38  41  42  43  44  45  46  47 0
 3-21G
 ****
 48 0
 3-21G
 ****


