%nproc=1
%NoSave
%Mem=1900MB
#P OB98/GEN NMR

erre ene a

0 1
  C      187.159    -257.002      43.138
  O      186.339    -256.028      42.500
  P      187.053    -254.875      41.646
  C      186.428    -255.901      39.345
  O      187.471    -255.524      40.237
  C      186.921    -255.909      37.898
  O      185.853    -256.399      37.039
  C      187.346    -254.538      37.358
  O      188.417    -254.756      36.431
  C      186.118    -254.072      36.597
  O      186.423    -253.068      35.635
  C      185.640    -255.400      36.014
  N      182.287    -253.857      32.477
  C      183.633    -253.760      32.542
  N      184.456    -254.196      33.514
  C      183.759    -254.784      34.504
  C      182.377    -254.922      34.590
  C      181.627    -254.430      33.511
  N      180.257    -254.535      33.439
  N      182.029    -255.553      35.766
  C      183.172    -255.794      36.379
  N      184.242    -255.365      35.637
  O      188.451    -254.695      42.404
  O      186.306    -253.585      41.566
  H      186.914    -252.356      36.087
  H      188.479    -253.824      42.852
  H      184.108    -253.272      31.693
  H      183.281    -256.261      37.343
  H      186.217    -255.699      35.131
  H      185.381    -253.657      37.296
  H      187.654    -253.826      38.133
  H      187.748    -256.624      37.820
  H      185.616    -255.171      39.432
  H      179.803    -254.283      32.572
  H      179.776    -255.128      34.104
  H      186.049    -256.884      39.623
  P      189.568    -253.642      36.374
  C      190.973    -254.747      38.252
  O      190.249    -253.612      37.818
  O      188.749    -252.268      36.305
  O      190.501    -253.790      35.215
  H      189.276    -251.590      35.846
  H      191.804    -254.419      38.883
  H      191.373    -255.325      37.409
  H      190.312    -255.391      38.843
  H      186.541    -257.699      43.665
  H      187.818    -256.517      43.828
  H      187.734    -257.522      42.401

 3  4  5  6  7  8  9  10  11  12  22  25  29  30  31  32 0
 6-311+G(2d,p)
 ****
 33  36  37 0
 6-311+G(2d,p)
 ****
 1  2  13  14  15  16  17  18  19  20  21  23  24  26 0
 3-21G
 ****
 27  28  34  35  38  39  40  41  42  43  44  45  46  47  48 0
 3-21G
 ****


