%nproc=1
%NoSave
%Mem=1900MB
#P OB98/GEN NMR

erre ene a

0 1
  C      114.446     251.756     137.986
  O      114.293     251.751     139.395
  P      115.579     251.742     140.351
  C      117.624     250.183     140.574
  O      116.275     250.311     140.130
  C      117.807     248.897     141.385
  O      117.129     248.993     142.653
  C      117.246     247.651     140.710
  O      118.119     247.203     139.682
  C      117.126     246.701     141.898
  O      118.383     246.071     142.187
  C      116.720     247.658     143.040
  N      115.291     247.595     143.340
  C      114.922     246.715     144.368
  O      115.776     246.032     144.931
  N      113.587     246.599     144.687
  C      112.706     247.291     144.028
  N      111.397     247.124     144.389
  C      113.055     248.202     142.921
  C      114.349     248.307     142.632
  O      115.310     252.108     141.778
  O      116.587     252.749     139.617
  H      118.203     245.408     142.889
  H      116.305     253.694     139.732
  H      112.279     248.747     142.394
  H      114.689     248.952     141.829
  H      117.276     247.424     143.958
  H      116.395     245.904     141.712
  H      116.249     247.863     140.309
  H      118.882     248.767     141.580
  H      111.207     246.467     145.131
  H      117.859     251.045     141.207
  H      110.634     247.583     143.918
  H      118.299     250.195     139.711
  P      117.545     246.321     138.479
  C      116.535     243.972     138.183
  O      117.210     244.857     139.055
  O      118.353     246.344     137.223
  O      116.082     246.940     138.221
  H      115.946     247.037     137.256
  H      116.674     242.949     138.548
  H      116.937     244.046     137.165
  H      115.473     244.212     138.172
  H      113.482     251.762     137.523
  H      114.982     250.881     137.682
  H      114.989     252.629     137.689

 3  4  5  6  7  8  9  10  11  12  13  23  27  28  29  30  32 0
 6-311+G(2d,p)
 ****
 34  35 0
 6-311+G(2d,p)
 ****
 1  2  14  15  16  17  18  19  20  21  22  24  25  26 0
 3-21G
 ****
 31  33  36  37  38  39  40  41  42  43  44  45  46 0
 3-21G
 ****


