%nproc=1
%NoSave
%Mem=1900MB
#P OB98/GEN NMR

erre ene a

0 1
  C     -899.337     241.486    -540.433
  O     -899.737     240.663    -541.510
  P     -898.927     239.329    -541.864
  C     -896.917     240.715    -542.685
  O     -897.897     239.742    -543.017
  C     -895.707     240.625    -543.618
  O     -895.015     239.375    -543.416
  C     -896.067     240.668    -545.106
  O     -896.367     241.986    -545.505
  C     -894.813     240.075    -545.721
  O     -893.800     241.075    -545.860
  C     -894.398     239.017    -544.682
  N     -894.755     237.662    -545.080
  C     -894.023     237.133    -546.151
  O     -893.163     237.802    -546.715
  N     -894.333     235.866    -546.592
  C     -895.297     235.195    -546.027
  N     -895.557     233.950    -546.512
  C     -896.107     235.743    -544.921
  C     -895.787     236.968    -544.510
  O     -899.777     238.134    -542.160
  O     -897.977     239.134    -540.587
  H     -892.953     240.590    -546.060
  H     -898.487     238.812    -539.806
  H     -896.907     235.148    -544.489
  H     -896.327     237.442    -543.697
  H     -893.316     239.049    -544.516
  H     -895.002     239.660    -546.721
  H     -896.917     239.992    -545.289
  H     -895.023     241.454    -543.378
  H     -894.998     233.642    -547.301
  H     -896.587     240.526    -541.653
  H     -896.287     233.372    -546.173
  H     -897.357     241.706    -542.719
  P     -897.737     242.290    -546.282
  C     -897.107     241.099    -548.492
  O     -897.397     242.354    -547.851
  O     -898.537     243.439    -545.770
  O     -898.547     240.920    -546.142
  H     -899.487     241.120    -545.917
  H     -897.237     241.230    -549.562
  H     -897.777     240.319    -548.129
  H     -896.077     240.838    -548.274
  H     -900.000     242.323    -540.358
  H     -898.340     241.835    -540.602
  H     -899.369     240.924    -539.523

 3  4  5  6  7  8  9  10  11  12  13  23  27  28  29  30  32 0
 6-311+G(2d,p)
 ****
 34  35 0
 6-311+G(2d,p)
 ****
 1  2  14  15  16  17  18  19  20  21  22  24  25  26 0
 3-21G
 ****
 31  33  36  37  38  39  40  41  42  43  44  45  46 0
 3-21G
 ****


