%nproc=1
%NoSave
%Mem=1900MB
#P OB98/GEN NMR

erre ene a

0 1
  C       56.817      24.609     -48.273
  O       58.158      24.539     -47.827
  H       56.570      25.655     -48.472
  H       56.140      24.225     -47.505
  H       56.700      24.035     -49.196
  P       58.710      23.083     -47.444
  C       59.922      22.817     -49.703
  O       58.882      22.338     -48.858
  C       60.999      21.746     -49.885
  O       60.403      20.600     -50.545
  C       62.182      22.212     -50.738
  O       63.388      21.667     -50.204
  C       61.903      21.597     -52.098
  O       63.092      21.407     -52.863
  C       61.186      20.304     -51.714
  N       60.140      16.311     -54.713
  C       60.955      16.452     -53.647
  N       61.163      17.552     -52.892
  C       60.384      18.567     -53.308
  C       59.509      18.574     -54.379
  C       59.403      17.377     -55.109
  N       58.593      17.234     -56.211
  N       58.926      19.820     -54.516
  C       59.429      20.545     -53.536
  N       60.329      19.835     -52.790
  O       57.919      22.338     -46.421
  O       60.224      23.406     -47.039
  H       63.687      20.809     -52.364
  H       60.638      24.025     -47.668
  H       61.521      15.567     -53.365
  H       59.189      21.583     -53.335
  H       61.882      19.492     -51.473
  H       61.237      22.255     -52.670
  H       62.258      23.297     -50.791
  H       61.329      21.407     -48.897
  H       60.372      23.719     -49.274
  H       58.565      16.335     -56.667
  H       58.024      18.011     -56.510
  H       59.478      23.076     -50.669
  P       64.137      22.470     -49.036
  C       63.204      21.201     -46.992
  O       63.222      22.425     -47.718
  O       64.669      23.815     -49.404
  O       65.335      21.474     -48.648
  H       66.129      22.002     -48.440
  H       62.562      21.300     -46.142
  H       64.195      20.966     -46.665
  H       62.841      20.417     -47.624

 6  7  8  9  10  11  12  13  14  15  25  28  32  33  34  35 0
 6-311+G(2d,p)
 ****
 36  39  40 0
 6-311+G(2d,p)
 ****
 1  2  3  4  5  16  17  18  19  20  21  22  23  24 0
 3-21G
 ****
 26  27  29  30  31  37  38  41  42  43  44  45  46  47 0
 3-21G
 ****
 48 0
 3-21G
 ****


