%nproc=1
%NoSave
%Mem=1900MB
#P OB98/GEN NMR

erre ene a

0 1
  C       30.004     463.060      58.183
  O       29.240     463.754      57.210
  P       28.595     465.184      57.542
  C       30.361     466.672      56.412
  O       29.817     466.223      57.647
  C       30.424     468.197      56.373
  O       29.078     468.720      56.258
  C       31.046     468.809      57.624
  O       31.801     469.968      57.251
  C       29.856     469.265      58.454
  O       30.211     470.347      59.329
  C       28.846     469.624      57.357
  N       24.565     472.089      58.750
  C       25.765     472.543      58.329
  N       26.866     471.831      58.000
  C       26.620     470.515      58.085
  C       25.444     469.903      58.496
  C       24.378     470.751      58.842
  N       23.150     470.287      59.256
  N       25.580     468.529      58.483
  C       26.807     468.316      58.060
  N       27.474     469.482      57.794
  O       27.669     465.202      58.707
  O       27.865     465.621      56.189
  H       30.768     469.968      60.043
  H       27.026     466.076      56.391
  H       25.857     473.623      58.250
  H       27.263     467.343      57.936
  H       28.994     470.646      56.989
  H       29.500     468.434      59.072
  H       31.684     468.105      58.173
  H       30.976     468.505      55.478
  H       29.714     466.319      55.599
  H       22.412     470.959      59.366
  H       22.956     469.296      59.160
  H       31.357     466.240      56.271
  P       33.059     470.316      58.192
  C       34.857     469.556      56.468
  O       34.221     469.327      57.703
  O       32.702     470.290      59.642
  O       33.470     471.761      57.633
  H       33.183     471.880      56.703
  H       35.586     468.762      56.294
  H       35.383     470.516      56.486
  H       34.125     469.552      55.653
  H       30.345     462.132      57.773
  H       29.397     462.868      59.043
  H       30.846     463.656      58.467

 3  4  5  6  7  8  9  10  11  12  22  25  29  30  31  32 0
 6-311+G(2d,p)
 ****
 33  36  37 0
 6-311+G(2d,p)
 ****
 1  2  13  14  15  16  17  18  19  20  21  23  24  26 0
 3-21G
 ****
 27  28  34  35  38  39  40  41  42  43  44  45  46  47  48 0
 3-21G
 ****


