%nproc=1
%NoSave
%Mem=1900MB
#P OB98/GEN NMR

erre ene a

0 1
  C       90.211     -86.068     219.999
  O       89.443     -87.069     220.627
  H       90.547     -85.359     220.761
  H       89.607     -85.524     219.268
  H       91.088     -86.501     219.513
  P       88.781     -88.227     219.734
  C       90.131     -89.198     217.778
  O       90.019     -89.103     219.192
  C       91.460     -89.837     217.373
  O       92.559     -89.067     217.933
  C       91.621     -91.287     217.853
  O       92.098     -92.101     216.779
  C       92.688     -91.190     218.931
  O       93.388     -92.415     219.135
  C       93.526     -90.022     218.404
  N       94.401     -89.468     219.429
  C       95.727     -89.916     219.415
  O       96.099     -90.728     218.568
  N       96.582     -89.479     220.392
  C       96.142     -88.700     221.331
  N       97.035     -88.327     222.286
  C       94.745     -88.226     221.399
  C       93.938     -88.640     220.423
  O       87.841     -87.744     218.682
  O       88.089     -89.213     220.789
  H       94.061     -92.275     219.836
  H       87.386     -89.728     220.330
  H       94.425     -87.581     222.206
  H       92.895     -88.346     220.390
  H       94.141     -90.334     217.549
  H       92.216     -90.909     219.884
  H       90.697     -91.716     218.241
  H       91.561     -89.766     216.283
  H       97.981     -88.681     222.204
  H       90.043     -88.193     217.352
  H       96.801     -87.745     223.076
  H       89.310     -89.819     217.407
  P       90.977     -92.754     215.833
  C       90.590     -92.462     213.284
  O       90.826     -91.827     214.531
  O       89.620     -92.506     216.645
  O       91.199     -94.205     215.563
  H       89.279     -93.355     216.986
  H       90.513     -91.721     212.516
  H       89.678     -93.020     213.335
  H       91.401     -93.123     213.061

 6  7  8  9  10  11  12  13  14  15  16  26  30  31  32  33  35 0
 6-311+G(2d,p)
 ****
 37  38 0
 6-311+G(2d,p)
 ****
 1  2  3  4  5  17  18  19  20  21  22  23  24  25 0
 3-21G
 ****
 27  28  29  34  36  39  40  41  42  43  44  45  46 0
 3-21G
 ****


