%nproc=1
%NoSave
%Mem=1900MB
#P OB98/GEN NMR

erre ene a

0 1
  C      297.662     111.273      42.693
  O      298.576     112.187      42.126
  P      298.346     112.893      40.709
  C      298.145     115.418      41.300
  O      297.466     114.219      40.946
  C      297.543     116.111      42.534
  O      297.701     115.261      43.688
  C      298.308     117.404      42.837
  O      297.987     118.599      42.154
  C      298.304     117.516      44.359
  O      297.280     118.393      44.838
  C      298.037     116.081      44.818
  N      299.701     114.191      49.227
  C      298.401     114.448      48.826
  N      297.451     114.372      49.782
  N      298.074     114.774      47.601
  C      299.138     114.913      46.776
  C      300.466     114.668      47.052
  C      300.807     114.271      48.400
  O      301.952     114.114      48.820
  N      301.277     114.979      45.990
  C      300.450     115.446      45.081
  N      299.145     115.467      45.524
  O      298.002     112.001      39.557
  O      299.809     113.511      40.420
  H      297.230     118.293      45.810
  H      299.959     113.472      39.458
  H      299.897     114.018      50.205
  H      300.740     115.820      44.107
  H      297.172     116.048      45.494
  H      299.258     117.923      44.720
  H      297.685     114.262      50.764
  H      299.359     117.222      42.575
  H      296.523     114.714      49.570
  H      296.461     116.255      42.414
  H      298.115     116.081      40.430
  H      299.200     115.196      41.499
  P      298.840     119.279      40.981
  C      297.734     118.938      38.699
  O      298.651     118.413      39.648
  O      300.364     118.989      41.379
  O      298.619     120.750      40.817
  H      300.950     119.639      40.948
  H      297.460     118.145      37.995
  H      298.206     119.756      38.141
  H      296.828     119.309      39.193
  H      298.033     110.938      43.639
  H      297.544     110.434      42.039
  H      296.716     111.754      42.831

 3  4  5  6  7  8  9  10  11  12  23  26  30  31 0
 6-311+G(2d,p)
 ****
 33  35  36  37  38 0
 6-311+G(2d,p)
 ****
 1  2  13  14  15  16  17  18  19  20  21  22  24  25 0
 3-21G
 ****
 27  28  29  32  34  39  40  41  42  43  44  45  46  47  48  49 0
 3-21G
 ****


