%nproc=1
%NoSave
%Mem=1900MB
#P OB98/GEN NMR

erre ene a

0 1
  C      -87.664    -371.537     364.217
  O      -88.340    -370.702     365.135
  H      -88.345    -372.333     363.899
  H      -86.795    -371.992     364.697
  H      -87.351    -370.966     363.338
  P      -87.579    -369.371     365.599
  C      -88.333    -368.180     363.385
  O      -87.276    -368.511     364.276
  C      -88.280    -366.690     363.042
  O      -88.824    -365.890     364.111
  C      -86.870    -366.150     362.866
  O      -86.255    -366.602     361.679
  C      -87.146    -364.653     362.889
  O      -87.644    -364.200     361.626
  C      -88.245    -364.564     363.977
  N      -87.731    -364.069     365.246
  C      -88.029    -362.735     365.550
  O      -88.698    -362.056     364.766
  N      -87.540    -362.195     366.714
  C      -86.836    -362.931     367.518
  N      -86.370    -362.334     368.650
  C      -86.519    -364.346     367.252
  C      -86.989    -364.846     366.108
  O      -86.131    -369.919     366.002
  O      -88.264    -368.586     366.668
  H      -87.073    -364.603     360.942
  H      -85.704    -370.442     365.305
  H      -85.937    -364.923     367.956
  H      -86.799    -365.876     365.837
  H      -89.054    -363.896     363.655
  H      -86.245    -364.073     363.101
  H      -86.257    -366.393     363.743
  H      -88.891    -366.527     362.143
  H      -86.592    -361.354     368.788
  H      -89.304    -368.441     363.814
  H      -85.789    -362.795     369.332
  H      -88.201    -368.779     362.478
  P      -84.720    -366.259     361.373
  C      -83.851    -368.381     362.541
  O      -83.862    -366.957     362.537
  O      -84.422    -364.808     361.168
  O      -84.383    -367.176     360.106
  H      -84.492    -368.133     360.255
  H      -83.252    -368.731     363.355
  H      -83.442    -368.737     361.619
  H      -84.851    -368.745     362.652

 6  7  8  9  10  11  12  13  14  15  16  26  30  31  32  33  35 0
 6-311+G(2d,p)
 ****
 37  38 0
 6-311+G(2d,p)
 ****
 1  2  3  4  5  17  18  19  20  21  22  23  24  25 0
 3-21G
 ****
 27  28  29  34  36  39  40  41  42  43  44  45  46 0
 3-21G
 ****


