%nproc=1
%NoSave
%Mem=1900MB
#P OB98/GEN NMR

erre ene a

0 1
  C     -477.388    -229.286      93.145
  O     -477.744    -229.081      94.508
  P     -479.210    -228.525      94.840
  C     -480.390    -230.851      95.297
  O     -480.300    -229.657      94.552
  C     -481.867    -231.138      95.621
  O     -482.614    -231.340      94.400
  C     -482.064    -232.380      96.483
  O     -481.962    -232.093      97.863
  C     -483.449    -232.831      96.062
  O     -484.455    -232.020      96.702
  C     -483.414    -232.550      94.540
  N     -482.856    -233.591      93.653
  C     -483.690    -234.264      92.764
  O     -484.896    -234.061      92.657
  N     -483.089    -235.201      91.965
  C     -481.742    -235.411      91.837
  O     -481.256    -236.221      91.064
  C     -480.896    -234.570      92.688
  C     -481.477    -233.723      93.548
  O     -479.473    -227.442      93.696
  O     -479.352    -227.937      96.212
  H     -484.386    -231.123      96.318
  H     -479.551    -226.550      94.082
  H     -483.688    -235.749      91.364
  H     -479.827    -234.671      92.590
  H     -480.856    -233.099      94.183
  H     -484.422    -232.323      94.167
  H     -483.646    -233.857      96.375
  H     -481.355    -233.162      96.190
  H     -482.287    -230.256      96.135
  H     -479.815    -230.779      96.225
  H     -479.958    -231.677      94.724
  P     -481.178    -233.107      98.829
  C     -478.824    -232.084      98.813
  O     -479.657    -233.111      98.314
  O     -481.802    -234.449      99.018
  O     -481.068    -232.297     100.213
  H     -481.795    -232.559     100.826
  H     -477.790    -232.289      98.517
  H     -478.877    -232.046      99.910
  H     -479.127    -231.123      98.393
  H     -476.386    -229.657      93.090
  H     -477.455    -228.359      92.616
  H     -478.056    -229.997      92.705

 3  4  5  6  7  8  9  10  11  12  13  23  28  29  30  31  32 0
 6-311+G(2d,p)
 ****
 33  34 0
 6-311+G(2d,p)
 ****
 1  2  14  15  16  17  18  19  20  21  22  24  25  26  27 0
 3-21G
 ****
 35  36  37  38  39  40  41  42  43  44  45 0
 3-21G
 ****


